Geom Title=Final Geometry  Data - GIS + Interp + Br
Version=Version 3.0 Beta
Viewing Rectangle= 581531.5984 , 586260.4816 , 49446.004 , 40720.516 

Junct Name=Junct1          
Junct Desc=Junct of Kulai and Wailupe, 0 , 0 ,-1 
Junct X Y & Text X Y=582307.31,46985.66,581897.1297364,47318.6470278
Up River,Reach=Kului Gorge     ,Headwaters      
Up River,Reach=Wailupe         ,upper           
Dn River,Reach=Wailupe         ,lower           
Junc L&A=370,
Junc L&A=422,

River Reach=Wailupe         ,upper           
Reach XY= 16 
       582090.19        49360.46        582084.5        49267.43
       582084.31         49259.8       582105.13        49184.75
       582128.63        49035.07       582181.69        48842.39
       582233.06         48648.6       582284.56        48457.15
       582316.06         48260.9       582339.81        48061.16
       582365.06        47863.35       582393.06        47663.39
       582416.88        47466.79       582385.94        47270.65
       582331.81        47078.46       582307.31        46985.66
Rch Text X Y=582144.47,48766.76
Reverse River Text= 0 

Type RM Length L Ch R = 1 ,1.63    ,27.99,26.82,20.18
XS GIS Cut Line=2
       582159.78         49259.6       582013.48        49223.76
#Sta/Elev= 18 
       0  235.49   12.13  234.03   21.96  232.21   22.02  232.18   29.26  227.53
   42.36  218.23   50.51  218.11   72.72  218.05   93.83  218.22   99.12  218.45
   121.6  231.07   122.3  231.52  123.22  232.12  125.14  232.82  141.18  236.18
  142.13  236.65  147.76  240.07  150.91  241.78
#Mann= 3 , 0 , 0 
       0     .15       0   22.02     .05       0   122.3     .15       0
Bank Sta=22.02,122.3
XS Rating Curve= 0 
Exp/Cntr=.3,.1

Type RM Length L Ch R = 1 ,1.625*  ,27.99,26.82,20.18
XS GIS Cut Line=3
       582279.24       49255.455  582067.0346531    49210.138293
       581916.31        49216.66
#Sta/Elev= 102 
       0  254.21    1.99  253.72    7.47  252.19    9.24  251.66   12.46  249.73
   15.28  248.42   16.99  248.23   18.83  247.96   20.65  247.64   22.84  247.42
   24.56  247.27   33.85  245.06   45.69  243.34   75.12  243.08   78.38  242.88
   83.65  242.97   85.25  242.99  122.59  242.49  124.11  241.58  125.76  240.46
  128.42  238.41  132.76  236.41   136.2  235.39  139.72  234.28  141.77  233.04
  143.72  232.04  151.43  229.93  151.65  229.87  151.85  229.49  156.88  224.23
  157.82   223.2  163.02  219.09  165.98  217.52  171.64  217.35  180.08  217.18
  187.08  217.13  200.43  218.17  203.89  218.24   204.1  218.25   208.1  219.33
  224.45  229.08  225.89  229.91  225.99  229.96  226.55  230.29  231.16  232.63
  234.78  234.36  237.55  235.49  240.79  237.45  242.47  238.44  243.86  238.91
  248.25  240.57  251.89  241.67  253.64  242.08  255.94  242.72  268.85  242.99
  290.02  245.12  291.71  245.28  293.91  245.44  295.39  245.56  299.18  245.76
  301.49  245.87  304.11  246.07  305.35  246.12     308  246.16  311.66   246.1
  314.22  246.22  315.49  246.21  316.99  246.38  317.58  246.46  318.88  246.68
  320.23  246.92   320.9  247.05  321.23   247.1  323.12  247.47  324.01  247.68
  325.99  248.09  327.67  248.46  328.67  248.93  333.59  250.92   337.7  252.68
  339.02  253.27  342.16  255.29  343.69  256.06  345.17  256.61  346.05  256.89
  346.95  257.08  348.55   257.2  349.29  257.21  351.14  257.58  351.92   257.9
  353.72   259.5  354.23  259.81  354.66  260.07  357.59  261.68  358.17  262.31
  358.98  262.67  361.02  263.49  362.81  264.25  363.99  264.93  366.55  266.71
  369.85  268.15  370.03  268.19
#Mann= 3 , 0 , 0 
       0     .15       0  151.85     .05       0  226.55     .15       0
Bank Sta=151.85,226.55
XS Rating Curve= 0 
Exp/Cntr=.3,.1

Type RM Length L Ch R = 1 ,1.62    ,49.63,49.1,50.91
XS GIS Cut Line=3
        582398.7        49251.31       582060.23        49181.73
       581819.14        49209.56
#Sta/Elev= 89 
       0  272.93    3.69  271.98   13.85  269.02   17.14     268   23.11  264.18
   28.35  261.62   31.51  261.26   34.93  260.76    38.3  260.16   42.37  259.75
   45.55  259.47    62.8  255.22   84.76  251.99  139.34  251.99   145.4  251.63
  158.14  251.99  227.41  251.99  230.23  250.21  233.29  248.02  238.22  243.99
  246.27   240.1  252.64  238.17  259.17  236.03  262.99  233.61  266.59  231.66
  281.31  227.54  281.67   226.8  285.02  219.83  287.94  216.92  297.51  216.28
  301.44  216.21  311.37  218.15   314.1  218.26  329.24  228.18  330.31  228.82
   330.8  229.06  345.61  236.34   350.6   238.4  359.47  243.99  361.97  244.87
  369.87  248.01  376.42  250.06  379.58   250.8  383.72  251.99  406.97  251.99
  445.08  255.36  448.12  255.61  452.09  255.84  454.75  256.02  461.58  256.27
  465.74  256.39  470.46  256.68  472.68  256.73  477.45  256.69  484.04  256.41
  488.66  256.55  490.95  256.48  493.64  256.75  494.71  256.89  497.04  257.28
  499.48   257.7  500.68  257.93  504.68  258.58  506.29   258.9  512.88  260.07
  514.67  260.88  523.54  264.26  530.94   267.3  533.32  268.31  538.97  271.98
  541.72  273.32  544.38  274.25  545.97  274.71   547.6  274.97  550.47  275.01
  551.81  274.94  555.14  275.46  556.54     276  559.79  278.99  561.48  280.03
  566.75  282.93   567.8  284.13  569.26  284.75  572.92  286.17  576.14  287.51
  578.28  288.74  582.88  292.01  588.83  294.54  589.14   294.6
#Mann= 3 , 0 , 0 
       0     .15       0  281.67     .05       0   330.8     .15       0
Bank Sta=281.67,330.8
XS Rating Curve= 0 
Exp/Cntr=.3,.1

Type RM Length L Ch R = 1 ,1.61*   ,49.63,49.1,50.91
XS GIS Cut Line=4
  582394.0633333   49198.7433333  582072.0699915   49134.3309667
  582068.3456964   49133.7786835       581836.14        49150.81
#Sta/Elev= 149 
       0  269.42    3.54  268.52    10.7  266.53   13.27  265.72    16.2  264.76
   16.42  264.69   18.61   263.5   22.14  261.56    23.1  261.13   27.17  259.55
   30.19  259.16   33.47  258.67    36.7  258.11    40.6  257.65   43.65  257.31
   50.43  255.81   60.18  253.96   81.22  251.42  115.67  250.77  118.63  250.73
   124.1  250.64  129.99  250.04  133.22  249.75  133.52  249.73   135.5  249.49
  139.33   249.2  151.53  249.03  161.51   248.7  171.36  248.31  200.78  249.51
  203.09  249.32  210.33  248.13  212.16   247.9  215.13  247.28  217.59  246.67
  217.91  246.62  220.61  244.98  221.79   244.2  223.54   243.1  226.85   240.8
  228.27   239.7  229.84  238.85  233.72  236.84  235.98   235.9  242.09  234.14
  243.33  233.76  248.34  232.21     252   230.3  255.45  228.72  269.38  224.88
  269.56  224.71   269.9  223.97   271.9  219.62  273.06  217.09   274.4   215.2
  275.81  214.17  284.82  213.54  288.53  213.41  295.29  214.67  297.04  214.99
  299.37  215.14  304.16  217.74   309.4  222.31  312.35  225.18  312.78  225.59
  313.26  225.85  313.68  226.04  328.19  232.58  333.07  234.51  337.58  236.97
  341.76  239.61  342.41   239.9  344.21  240.63  347.33  241.99  350.87  243.49
  351.94  243.95   352.4  244.11     354  244.57  358.36  245.68  361.45  246.31
  365.51  247.27  372.73  247.58  378.84  247.61  388.28  247.56  406.49  248.55
  408.44  248.64   425.6  249.74  428.57  249.92  432.46  250.09  435.07  250.22
  441.75  250.41  445.83   250.5  450.45  250.72  452.63  250.76   457.3  250.75
  462.86  250.61  463.75  250.57  464.04  250.57  466.18  250.57  467.39  250.59
  468.27  250.61  470.52  250.58  473.15  250.77   474.2  250.87  476.48  251.15
  478.87  251.44  480.05   251.6  482.58  251.89  483.82  252.03  483.96  252.05
  485.54  252.33  490.62  253.15  491.71  253.35  491.99   253.4  492.81  253.68
  493.75  253.96  496.23  254.57  502.43  256.37  509.66  258.61  509.68  258.62
  511.57   259.2  512.01   259.4  516.78  262.31  517.54   262.8  519.34  263.76
  520.24  264.19  522.84  265.22   524.4  265.78  524.61  265.83  525.99  266.17
   528.8  266.58  530.12  266.71  533.38  267.49  534.36  267.88  534.75  268.07
  537.93  270.72  539.59  271.75  540.91  272.52  544.75  274.21  545.78  275.08
  547.21  275.59  550.07  276.53  550.79  276.78  553.94  277.94  556.04  278.94
  558.75  280.48  560.54  281.54  566.37  283.83  566.67  283.91
#Mann= 3 , 0 , 0 
       0     .15       0   269.9     .05       0  313.68     .15       0
Bank Sta=269.9,313.68
XS Rating Curve= 0 
Exp/Cntr=.3,.1

Type RM Length L Ch R = 1 ,1.6*    ,49.63,49.1,50.91
XS GIS Cut Line=4
  582389.4266667   49146.1766667  582080.0599958   49086.1404834
  582076.4613928   49085.8273671       581853.14        49092.06
#Sta/Elev= 149 
       0   265.9    3.38  265.06   10.24  263.27   12.69  262.43    15.5  261.45
   15.71  261.38    17.8  260.46   21.18  258.94    22.1  258.58   25.98  257.49
   28.88  257.07   32.01  256.58    35.1  256.06   38.83  255.54   41.74  255.15
   48.23   253.9   57.55   252.7   77.68  250.84  110.62  249.56  113.46  249.48
  118.69   249.3  124.33  248.08  127.41  247.51   127.7  247.46   129.6  247.11
  133.25  246.77  144.93  246.08  154.47  245.41  163.89  244.64  192.02  247.02
  194.23  246.66  201.16  244.26  202.91  243.81  205.75  242.57  208.11  241.35
  208.41  241.24  210.99  239.75  212.12  239.07   213.8  238.19  216.96  236.41
  218.32  235.42  219.82  234.51  223.53  232.43  225.69   231.7  231.53  230.11
  232.72  229.78  237.52  228.39  241.02  226.99  244.32  225.78  257.63  222.16
  257.81  221.89  258.14  221.14  260.01  216.86   261.1  214.35  262.35  211.98
  263.68  211.42  272.14  210.79  275.61   210.6  281.24  211.58   282.7  211.83
  284.65  212.03  288.64  213.57     293   218.7  295.45  222.18  295.82  222.69
  296.22  222.88  296.57  223.03  310.76  228.81  315.55  230.63  319.96  232.64
  324.05  235.24  324.68  235.58  326.45  236.39   329.5  237.85  332.96   239.4
  334.02  239.88  334.47  240.07  336.03  240.47   340.3   241.3  343.33  241.81
  347.29  242.55  354.37  243.16  360.34  243.23  369.58  243.12  387.41  243.46
  389.32  243.47  406.11  244.12  409.03  244.23  412.83  244.33  415.38  244.41
  421.93  244.55  425.92  244.62  430.44  244.75  432.57  244.78  437.14  244.81
  442.59  244.77  443.46  244.72  443.75  244.71  445.84  244.66  447.03  244.65
  447.89  244.67  450.08  244.68  452.66   244.8  453.69  244.85  455.92  245.01
  458.26  245.18  459.41  245.27  461.89  245.44   463.1   245.5  463.24  245.52
  464.79  245.76  469.76  246.49  470.83  246.68  471.11  246.72   471.9  246.92
  472.82  247.04  475.26  247.29  481.32  248.47   488.4  249.93  488.42  249.93
  490.27  250.28   490.7  250.49  495.37  253.15  496.11  253.62  497.88  254.64
  498.75  255.07   501.3   256.2  502.82  256.84  503.04  256.92  504.39  257.37
  507.14  258.14  508.42  258.47  511.61  259.53  512.57  259.92  512.96  260.14
  516.07  262.45  517.69  263.48  518.99  264.27  522.74  265.49  523.75  266.03
  525.15  266.42  527.96  267.18  528.66  267.39  531.75  268.37   533.8  269.14
  536.45  270.26  538.21  271.07  543.91  273.13  544.21  273.21
#Mann= 3 , 0 , 0 
       0     .15       0  258.14     .05       0  296.57     .15       0
Bank Sta=258.14,296.57
XS Rating Curve= 0 
Exp/Cntr=.3,.1

Type RM Length L Ch R = 1 ,1.59    ,48.22,49.97,52.39
XS GIS Cut Line=3
       582384.79        49093.61       582088.05        49037.95
       581870.14        49033.31
#Sta/Elev= 65 
       0  262.39    9.77     260   14.79  258.14   16.99  257.42   21.09  256.02
   46.03  251.99  105.58  248.34  108.29  248.22  113.28  247.95  118.66  246.13
   121.6  245.27  123.69  244.73  147.43  242.12  156.42  240.96  183.27  244.54
  185.38  243.99  191.99   240.4  193.66  239.72  196.37  237.86  198.62  236.03
  202.45  233.94  207.07  232.01   209.8  230.16  213.34  228.03  222.11  225.79
  245.89  219.45  246.37  218.31  248.12  214.09  250.31  208.76   262.7   207.8
   267.2   208.5  273.11  209.39   276.6  215.08  278.85  219.79  279.45  220.01
  302.34  228.31  306.96  231.26  311.67  233.71  315.06  235.32  316.53  236.03
  318.06  236.37     336  238.75  341.85  238.85  368.33  238.37   370.2   238.3
  422.32  238.93  423.45  238.86   425.5  238.75  426.66  238.72   441.2  238.98
  442.39  238.97   448.9  239.82  449.95  240.01     451  240.16  454.28  240.01
  467.14  241.25  468.97  241.36  473.96  243.99  476.41  245.52  481.46  248.01
  490.79  251.96  497.07  256.02  505.84  257.82  514.15  260.03  521.74  262.52
#Mann= 3 , 0 , 0 
       0     .15       0  246.37     .05       0  279.45     .15       0
Bank Sta=246.37,279.45
XS Rating Curve= 0 
Exp/Cntr=.3,.1

Type RM Length L Ch R = 1 ,1.58*   ,48.22,49.97,52.39
XS GIS Cut Line=4
       582385.95      49049.5475  582126.7799298   48993.1802114
  582090.4303978   48987.0846559     581872.4575      48977.6525
#Sta/Elev= 152 
       0  259.58    4.09  258.52    9.37  257.22   13.38  255.84   14.18  254.99
   15.94  253.16   16.29  253.07   19.25  252.28   20.22  252.01    41.4  249.05
   44.13  248.71   44.76  248.67   52.91  248.32   71.84  247.67   73.55  247.57
    83.6   246.1   86.23  244.98   89.05  244.64   95.06  243.99   97.45  243.84
   99.05  243.69  101.21  243.57  101.83  243.55  103.81  243.44  105.23  243.34
  108.59   243.2  111.33  242.47  113.75   241.8   114.6   241.6  116.57  241.15
  118.57  240.74  120.17   240.6  123.23  240.33  124.75  240.18  127.09  239.95
  129.58  239.69  130.93  239.54  134.17   239.2  136.37  238.92  138.99  238.61
  141.33  238.33  141.86  238.26  144.55  237.93  147.27  237.56  149.95  237.23
  150.24  237.25  162.72  238.41  164.22   238.5  175.69  239.24  176.58  239.03
  177.71  238.73  179.69  237.78  184.05  235.71  184.32  235.61  185.65   235.1
  188.25  233.53  190.24  232.13   190.4  232.02  193.17   230.7  194.08  230.27
  197.18  229.09  198.51  228.56  201.12  226.99  204.52  225.15  206.37  224.65
  212.92   222.9  216.28  221.98  218.23  221.45  221.18  220.63  235.72  217.04
  236.18  216.17  236.69  215.22  237.91  212.44  239.19   209.5  240.07  207.46
  241.62  206.65  247.48  205.78   252.3  205.11  256.75  205.73  262.59  206.53
  264.02  208.33  266.04  211.93  266.09  212.06  268.26   216.7  268.85   217.2
  269.21  217.52  279.93  221.46  284.07  222.96  285.69  223.44  288.27  224.19
   292.8  225.48  292.82  225.49  295.91  226.97  297.64  227.79  302.56  229.74
  303.09  229.93  306.11  230.96  307.65   231.5  308.21  231.59  309.25  231.77
  310.09  231.86  315.89  232.44  317.97  232.67  323.09  233.18  328.02  233.71
  332.29  233.81  334.14  233.83  350.31  233.61  351.54  233.58   354.2  233.51
  361.85  233.44  363.81  233.39  364.54   233.4  366.62  233.37  368.23  233.35
  371.41  233.39  375.01  233.31  377.13  233.25  383.28     233  384.42  233.02
  385.77  232.92  418.34   233.2  419.52  233.15  421.67  233.06  422.88  233.04
  427.94   233.1  436.47  234.21  438.09   234.4  439.34  234.52  446.15  235.86
  447.25  236.05  448.35  236.21  451.78  236.23  461.33  237.26  465.24  237.67
  467.15  237.82  472.37  239.98  473.03  240.29  474.94  241.75  480.22   245.3
  482.46  246.69  489.98  251.01  496.55  255.83  496.58  255.84  498.18  256.45
  499.97  257.09  502.46  257.93  505.73  258.71  512.96  260.75  514.42  261.16
  516.84  261.94  522.36  263.74
#Mann= 3 , 0 , 0 
       0     .15       0  236.18     .05       0  268.85     .15       0
Bank Sta=236.18,268.85
XS Rating Curve= 0 
Exp/Cntr=.3,.1

Type RM Length L Ch R = 1 ,1.57*   ,48.22,49.97,52.39
XS GIS Cut Line=4
       582387.11       49005.485  582129.3266199   48941.6234743
  582092.8107956   48936.2193118      581874.775       48921.995
#Sta/Elev= 152 
       0  256.78    3.91  255.69    8.96  254.44    12.8  253.23   13.57  251.83
   15.26  248.77   15.58  248.71   18.42  248.19   19.35  247.99   39.61  245.66
   42.22  245.42   42.83   245.4   50.63  245.21   68.74  245.11   70.38  245.03
   79.99  242.73   82.51  240.65    85.2  240.15   90.96  239.26   93.25  239.11
   94.78  238.91   96.85  238.81   97.44  238.79   99.33  238.65  100.69  238.55
  103.91  238.44  106.53  237.95  108.84  237.48  109.66  237.34  111.54  237.03
  113.46  236.76  114.99  236.66  117.91  236.46  119.36  236.34  121.61  236.14
  123.99   235.9  125.28  235.76  128.38  235.46  130.49  235.16  132.99  234.84
  135.23  234.54  135.74  234.47  138.31  234.17  140.92   233.8  143.48  233.49
  143.75   233.5   155.7  234.08  157.13  234.06  168.11  233.95  168.96  233.75
  170.05  233.47  171.94  232.69  176.11  231.03  176.36  230.94  177.64  230.48
  180.13  229.21  182.04   228.1  182.19  228.01  184.84  226.95   185.7  226.59
  188.67  225.59  189.94  225.11  192.45  223.82  195.69  222.28  197.47  221.77
  203.74  220.02  206.95   219.1  208.81  218.58  211.64  217.76  225.55  214.64
  225.99  214.04  226.49  213.37  227.69  210.79  228.96  208.06  229.83  206.16
  231.36  204.66  237.14  203.38   241.9  202.41  246.29  202.96  252.06  203.66
  253.48  204.91  255.47  208.79  255.53  208.91  257.67  213.62  258.26  214.39
  258.62  214.91  269.82  219.07  274.15  220.64  275.83  221.03  278.54  221.64
  283.27  222.66  283.28  222.67  286.51  223.73  288.31  224.33  293.46  225.77
     294  225.91  297.16  226.61  298.77  226.97  299.36  227.03  300.44  227.17
  301.31  227.24  307.37  227.68  309.55  227.87  314.89  228.24  320.04  228.67
   324.5   228.8  326.44  228.81  343.32  228.65   344.6  228.61  347.38  228.52
  355.37  228.51  357.41  228.48  358.18  228.49  360.35  228.42  362.03  228.35
  365.35  228.39  369.12  228.18  371.33  228.04  377.74  227.47  378.93  227.49
  380.35  227.28  414.36  227.46  415.59  227.43  417.83  227.38   419.1  227.36
  424.39   227.4  433.29  229.47  434.99  229.82  436.29  230.07   443.4  231.91
  444.55  232.09   445.7  232.25  449.28  232.44  459.25  233.63  463.33  234.08
  465.33  234.28  470.78  235.96  471.47  236.21  473.46  237.99  478.98  242.59
  481.32  244.46  489.17  250.06  496.03  255.65  496.06  255.66  497.73  256.56
   499.6  257.49   502.2  258.67  505.62  259.59  513.17  261.84   514.7  262.28
  517.22  263.09  522.99  264.96
#Mann= 3 , 0 , 0 
       0     .15       0  225.99     .05       0  258.26     .15       0
Bank Sta=225.99,258.26
XS Rating Curve= 0 
Exp/Cntr=.3,.1

Type RM Length L Ch R = 1 ,1.56*   ,48.22,49.97,52.39
XS GIS Cut Line=4
  582388.2699998   48961.4225067  582131.8733095    48890.066745
  582095.1911931   48885.3539754  581877.0924996   48866.3375085
#Sta/Elev= 152 
       0  253.97    3.74  252.87    8.56  251.67   12.23  250.62   12.95  248.68
   14.57  244.39   14.88  244.36   17.59   244.1   18.47  243.98   37.83  242.26
   40.32  242.14    40.9  242.12   48.34   242.1   65.64  242.56    67.2   242.5
   76.39  239.36   78.79  236.33   81.36  235.67   86.86  234.52   89.04  234.37
    90.5  234.12   92.48  234.04   93.04  234.02   94.85  233.87   96.15  233.75
   99.22  233.69  101.72  233.43  103.94  233.15  104.71  233.07  106.51  232.91
  108.34  232.77   109.8  232.72   112.6  232.59  113.98   232.5  116.12  232.34
   118.4  232.12  119.63  231.98  122.59  231.72   124.6  231.39     127  231.06
  129.14  230.75  129.62  230.68  132.08  230.42  134.56  230.04  137.01  229.76
  137.27  229.75  148.68  229.76  150.05  229.62  160.53  228.65  161.34  228.48
  162.38  228.21  164.18   227.6  168.17  226.34  168.41  226.27  169.63  225.87
     172  224.88  173.83  224.06  173.97  224.01   176.5  223.19  177.33  222.92
  180.17  222.09  181.38  221.67  183.77  220.65  186.87   219.4  188.56  218.88
  194.55  217.13  197.62  216.22   199.4  215.71  202.09  214.89  215.38  212.23
   215.8   211.9   216.3  211.52  217.48  209.14  218.73  206.63  219.59  204.86
   221.1  202.68  226.81  200.98   231.5  199.71  235.84  200.19  241.54   200.8
  242.94  201.48  244.91  205.64  244.96  205.77  247.08  210.53  247.66  211.58
  248.04   212.3  259.72  216.69  264.22  218.32  265.98  218.62   268.8  219.08
  273.73  219.83  273.75  219.84  277.11  220.49  278.99  220.86  284.35   221.8
  284.92  221.89  288.22  222.25  289.89  222.44  290.51  222.47  291.63  222.57
  292.54  222.63  298.86  222.91  301.12  223.06   306.7   223.3  312.07  223.63
  316.71  223.79  318.73  223.79  336.33  223.69  337.67  223.65  340.56  223.52
  348.89  223.57  351.02  223.58  351.82  223.59  354.08  223.46  355.83  223.34
   359.3  223.39  363.22  223.06  365.52  222.83  372.21  221.95  373.45  221.97
  374.93  221.64  410.38  221.73  411.67  221.71     414  221.69  415.32  221.68
  420.83   221.7  430.12  224.73  431.88  225.24  433.24  225.63  440.65  227.95
  441.85  228.13  443.05   228.3  446.78  228.66  457.18  229.99  461.43   230.5
  463.51  230.73   469.2  231.95  469.91  232.12  471.99  234.22  477.74  239.87
  480.18  242.24  488.36   249.1  495.52  255.46  495.55  255.48  497.29  256.67
  499.24  257.89  501.95  259.42  505.51  260.48  513.38  262.93  514.97  263.41
   517.6  264.24  523.61  266.17
#Mann= 3 , 0 , 0 
       0     .15       0   215.8     .05       0  247.66     .15       0
Bank Sta=215.8,247.66
XS Rating Curve= 0 
Exp/Cntr=.3,.1

Type RM Length L Ch R = 1 ,1.55    ,48.85,47.82,47.02
XS GIS Cut Line=3
       582389.43        48917.36       582134.42        48838.51
       581879.41        48810.68
#Sta/Elev= 93 
       0  251.16    3.56  250.04   11.65  248.01   13.88  240.01   16.76  240.01
   36.04  238.87   38.97  238.85   46.06  238.99   62.54  240.01   64.03  239.96
   72.78  235.99   75.07  232.01   77.52  231.19   82.76  229.78   84.84  229.63
   86.23  229.34   88.65  229.26   91.61  228.96   96.92  228.91   99.77   228.8
  104.62  228.78  107.28  228.72   108.6  228.66  110.64  228.53  112.81  228.34
  113.98   228.2   116.8  227.98  118.72  227.63     121  227.29   123.5  226.89
  125.84  226.66  128.21  226.28  130.79     226  141.66  225.43  142.96  225.18
  153.72  223.21  156.43  222.51  160.46   221.6  165.62  220.03  168.17  219.44
  171.66  218.59  179.66     216  188.29  213.34  189.98  212.84  192.55  212.02
  205.61  209.76   206.1  209.67   208.5  205.19  210.84  200.69  216.47  198.58
   221.1  197.02   232.4  198.06   234.4  202.62  237.06  208.77  237.46  209.69
  249.61   214.3   254.3     216  256.13  216.21  259.06  216.53  264.21  217.01
  267.71  217.25  275.84  217.87  281.65  217.91  283.77  218.01  290.34  218.14
   292.7  218.26   298.5  218.36  308.92  218.78  329.34  218.73  330.73  218.68
  333.74  218.53  345.46  218.68  347.81   218.5  349.63  218.34  353.24  218.39
  357.32  217.94  359.72  217.62  366.68  216.42  367.97  216.45  369.51     216
  417.28     216  426.94  219.99   437.9     224   455.1  226.36  468.35  228.03
  479.04  240.01  495.03   255.3  496.84  256.78  498.87  258.29  501.69  260.17
  513.59  264.02  517.98  265.39  524.24  267.39
#Mann= 3 , 0 , 0 
       0     .15       0  205.61     .05       0  237.06     .15       0
Bank Sta=205.61,237.06
XS Rating Curve= 0 
Exp/Cntr=.3,.1

Type RM Length L Ch R = 1 ,1.5425* ,48.85,47.82,47.02
XS GIS Cut Line=4
       582416.09        48872.14   582148.969989   48793.4549068
   582146.651118   48793.1067786     581882.8875         48764.3
#Sta/Elev= 143 
       0  248.64     3.8  247.56    4.23  247.46   12.44  245.36   14.83  239.17
   17.01  238.99    17.9  238.88   24.89  237.72   31.03  237.07    38.5  236.27
   41.63  236.05   43.62  235.95    49.2  235.62   54.43  235.47   59.84   235.7
    66.8  235.91   68.39  235.84   77.74  232.73   80.19  229.71    82.8  229.06
    88.4  227.92   90.62  227.77   92.11  227.53   94.69  227.43   97.85  227.16
  101.84  227.08  103.16  227.06  103.53  227.05  106.57  226.87  111.75  226.68
  114.59  226.54  114.89  226.53     116  226.46  117.65  226.34  118.18   226.3
   120.5   226.1  121.75  225.97  124.76  225.74  126.81  225.43  129.25  225.11
  131.92  224.75  134.42  224.52  136.95  224.18   139.7  223.91  151.31  223.21
   152.7  222.99  158.43  222.12  159.63  221.91   164.2  221.03  167.09  220.32
   171.4  219.36  173.79  218.69  176.91  217.81  179.63  217.17  180.27  217.02
  183.36  216.24  184.19  215.98   191.9   213.6  193.28  213.19  199.85  211.29
  201.12  210.95  202.93  210.49  205.67  209.75     207  209.52  219.53  207.35
  219.62  207.27  220.11  206.89   222.5  202.01  222.64  201.71  223.53   199.8
  224.82  197.89  230.42  196.12  232.65  195.48  235.02  194.82  240.95  195.58
  245.38  196.14  246.37  196.63  247.26  198.52  248.38   200.9  250.96  206.44
  251.05   206.6  251.46  207.31  263.98  211.53  268.81   213.1  270.69  213.38
  272.21  213.59  273.71   213.8  279.02  214.49  282.62   214.9  283.23  214.97
     291   215.4  296.98  215.43  299.16  215.51  305.93   215.6  308.36  215.69
  314.34  215.77  325.07  216.08  346.11  216.05  347.54  216.01  350.64   215.9
  362.71  216.01  365.13  215.88  367.01  215.76  370.73  215.79  374.93  215.46
   377.4  215.21  384.57  214.32   385.9  214.34  387.49     214  422.09     214
  427.25   214.3   436.7  214.87   436.9  214.95  446.65   218.5  457.94  222.23
   459.7  222.52  472.58  224.07  474.78  224.69  475.65  224.83   489.3  226.84
  489.49     227   490.6  227.88  492.93  229.98  500.32  236.53  507.08  241.72
  512.04  245.18  514.76  247.08  516.79  248.56  517.82  249.21  518.65  249.72
  518.94  249.88  520.74  250.91  523.65  252.39  526.97  253.27  528.54  253.66
  532.75  254.74  535.85  255.55  535.91  255.57  538.88  256.32  540.43  256.71
     541  256.86   544.9  257.88  546.88   258.4
#Mann= 3 , 0 , 0 
       0     .15       0  219.62     .05       0  251.05     .15       0
Bank Sta=219.62,251.05
XS Rating Curve= 0 
Exp/Cntr=.3,.1

Type RM Length L Ch R = 1 ,1.535*  ,48.85,47.82,47.02
XS GIS Cut Line=4
       582442.75        48826.92  582163.5199779   48748.3998136
  582161.1207454   48747.9478524      581886.365        48717.92
#Sta/Elev= 143 
       0  246.11    4.05  245.08     4.5  244.97   13.24  242.71   15.77  238.33
    18.1  237.98   19.04  237.76   26.47  235.82   33.01  234.87   40.95  233.68
   44.28  233.25    46.4  233.01   52.34  232.25    57.9  231.65   63.65   231.8
   71.06   231.8   72.76  231.73    82.7  229.47    85.3  227.41   88.09  226.92
   94.04  226.05    96.4  225.91   97.98  225.72  100.73  225.61   104.1  225.37
  108.33  225.23  109.75  225.22  110.13  225.19  113.37  224.94  118.88  224.59
   121.9  224.37  122.22  224.34   123.4  224.26  125.16  224.11  125.72  224.07
  128.19  223.87  129.52  223.74  132.72  223.49   134.9  223.22  137.49  222.94
  140.33  222.62  142.99  222.39  145.69  222.08  148.62  221.81  160.97  220.99
  162.45   220.8  168.54  220.04  169.81  219.83  174.67  218.85  177.75  218.13
  182.33  217.12  184.88  216.47  188.19  215.58  191.09   214.9  191.77  214.74
  195.06  213.89  195.95  213.63  204.15   211.2  205.62  210.77   212.6  208.86
  213.95  208.56  215.87  208.14  218.79  207.47  220.21  207.24  233.54  204.93
  233.64  204.79  234.12  204.12  236.49  198.82  236.63   198.5  237.52  196.42
   238.8  195.09  244.37  193.66  246.58  193.14  248.94  192.62  254.89  193.59
  259.34   194.3  260.34   195.2  261.23  196.97  262.35  199.18  264.95  204.31
  265.04  204.42  265.46  204.93  278.34  208.77  283.31  210.21  285.25  210.54
  286.82  210.81  288.36  211.08  293.82  211.98  297.53  212.55  298.16  212.65
  306.15  212.93  312.31  212.96  314.56  213.01  321.52  213.07  324.03  213.13
  330.18  213.18  341.22  213.39  362.87  213.36  364.35  213.34  367.54  213.26
  379.97  213.34  382.46  213.25  384.39  213.17  388.21   213.2  392.54  212.97
  395.08  212.81  402.46  212.21  403.83  212.23  405.46     212  441.08     212
  446.39  212.61  456.11  213.74  456.33  213.81  466.35  217.01  477.97  220.45
  479.79   220.8  493.04  222.19  495.31  223.14  496.21  223.29  510.26  225.64
  510.45  225.77   511.6  226.32  513.99  227.99  521.59  233.06  528.55  237.16
  533.66  239.46  536.45  240.74  538.55  241.82   539.6  242.29  540.46  242.66
  540.76  242.77  542.62  243.52  545.61  244.62  549.03  245.32  550.64  245.62
  554.97  246.46  558.16  247.11  558.22  247.12  561.28  247.71  562.88  248.04
  563.47  248.16  567.48  248.97  569.52   249.4
#Mann= 3 , 0 , 0 
       0     .15       0  233.64     .05       0  265.04     .15       0
Bank Sta=233.64,265.04
XS Rating Curve= 0 
Exp/Cntr=.3,.1

Type RM Length L Ch R = 1 ,1.5275* ,48.85,47.82,47.02
XS GIS Cut Line=4
  582469.4099957   48781.7000072  582178.0699646   48703.3447276
  582175.5903704   48702.7889334  581889.8424994   48671.5400074
#Sta/Elev= 143 
       0  243.58    4.29   242.6    4.77  242.49   14.03  240.05   16.72  237.49
   19.18  236.96   20.19  236.63   28.06  233.91   34.99  232.66   43.41  231.08
   46.94  230.45   49.19  230.07   55.48  228.88   61.38  227.82   67.47   227.9
   75.33   227.7   77.12  227.61   87.66  226.21   90.42  225.11   93.37  224.79
   99.68  224.19  102.19  224.06  103.86  223.92  106.77  223.78  110.34  223.57
  114.83  223.39  116.33  223.37  116.74  223.33  120.17     223  126.01  222.49
  129.21  222.19  129.55  222.16   130.8  222.05  132.66  221.89  133.26  221.84
  135.87  221.63  137.28  221.51  140.68  221.25  142.99  221.02  145.74  220.76
  148.75  220.48  151.57  220.25  154.42  219.98  157.53  219.72  170.62  218.77
  172.19  218.61  178.65  217.97     180  217.74  185.15  216.67  188.41  215.93
  193.27  214.88  195.97  214.24  199.48  213.36  202.55  212.63  203.27  212.46
  206.76  211.54   207.7  211.27  216.39  208.79  217.95  208.36  225.35  206.44
  226.79  206.17  228.82  205.79  231.92   205.2  233.41  204.96  247.54  202.51
  247.65   202.3  248.13  201.34  250.49  195.64  250.63   195.3  251.51  193.04
  252.78  192.29  258.31   191.2  260.52  190.79  262.86  190.41  268.84  191.61
  273.31  192.47   274.3  193.77   275.2  195.41  276.33  197.46  278.93  202.18
  279.02  202.25  279.46  202.55  292.71     206  297.82  207.31  299.82  207.71
  301.42  208.03  303.01  208.35  308.63  209.46  312.44   210.2  313.09  210.32
  321.31  210.47  327.64  210.48  329.95   210.5  337.12  210.54  339.69  210.57
  346.01  210.59  357.38   210.7  379.64  210.68  381.16  210.67  384.44  210.63