Geom Title=Imported From GIS
Version=Version 3.1 Beta  Mar 2002
Viewing Rectangle= 581531.5984 , 586260.4816 , 49446.004 , 40720.516 

Junct Name=Junct1          
Junct Desc=, 0 , 0 ,-1 
Junct X Y & Text X Y=582307.3125,46985.6601563,581592.5625,47346.7773438
Up River,Reach=Kului Gorge     ,Headwaters      
Up River,Reach=Wailupe         ,upper           
Dn River,Reach=Wailupe         ,lower           
Junc L&A=370,
Junc L&A=422,

River Reach=Wailupe         ,upper           
Reach XY= 16 
       582090.19        49360.46        582084.5        49267.43
       582084.31         49259.8       582105.13        49184.75
       582128.63        49035.07       582181.69        48842.39
       582233.06         48648.6       582284.56        48457.15
       582316.06         48260.9       582339.81        48061.16
       582365.06        47863.35       582393.06        47663.39
       582416.88        47466.79       582385.94        47270.65
       582331.81        47078.46       582307.31        46985.66
Rch Text X Y=583394.4411228,49002.7305455
Reverse River Text= 0 

Type RM Length L Ch R = 1 ,1.63    ,55.98,53.64,40.36
XS GIS Cut Line=2
       582159.78         49259.6       582013.48        49223.76
Node Last Edited Time=Dec/21/1999 15:31:56
#Sta/Elev= 16 
       0  235.49   12.13  234.03   21.96  232.21   22.02  232.18   29.26  227.53
   42.36  218.23   50.51  218.11   72.72  218.05   93.83  218.22   99.12  218.45
   121.6  231.07   122.3  231.52  125.14  232.82  141.18  236.18  147.76  240.07
  150.91  241.78
#Mann= 3 , 0 , 0 
       0     .15       0   22.02     .05       0   122.3     .15       0
Bank Sta=22.02,122.3
XS Rating Curve= 0 
Exp/Cntr=0.3,0.1

Type RM Length L Ch R = 1 ,1.62    ,148.88,147.28,152.72
XS GIS Cut Line=3
        582398.7        49251.31       582060.23        49181.73
       581819.14        49209.56
Node Last Edited Time=Dec/21/1999 15:31:56
#Sta/Elev= 89 
       0  272.93    3.69  271.98   13.85  269.02   17.14     268   23.11  264.18
   28.35  261.62   31.51  261.26   34.93  260.76    38.3  260.16   42.37  259.75
   45.55  259.47    62.8  255.22   84.76  251.99  139.34  251.99   145.4  251.63
  158.14  251.99  227.41  251.99  230.23  250.21  233.29  248.02  238.22  243.99
  246.27   240.1  252.64  238.17  259.17  236.03  262.99  233.61  266.59  231.66
  281.31  227.54  281.67   226.8  285.02  219.83  287.94  216.92  297.51  216.28
  301.44  216.21  311.37  218.15   314.1  218.26  329.24  228.18  330.31  228.82
   330.8  229.06  345.61  236.34   350.6   238.4  359.47  243.99  361.97  244.87
  369.87  248.01  376.42  250.06  379.58   250.8  383.72  251.99  406.97  251.99
  445.08  255.36  448.12  255.61  452.09  255.84  454.75  256.02  461.58  256.27
  465.74  256.39  470.46  256.68  472.68  256.73  477.45  256.69  484.04  256.41
  488.66  256.55  490.95  256.48  493.64  256.75  494.71  256.89  497.04  257.28
  499.48   257.7  500.68  257.93  504.68  258.58  506.29   258.9  512.88  260.07
  514.67  260.88  523.54  264.26  530.94   267.3  533.32  268.31  538.97  271.98
  541.72  273.32  544.38  274.25  545.97  274.71   547.6  274.97  550.47  275.01
  551.81  274.94  555.14  275.46  556.54     276  559.79  278.99  561.48  280.03
  566.75  282.93   567.8  284.13  569.26  284.75  572.92  286.17  576.14  287.51
  578.28  288.74  582.88  292.01  588.83  294.54  589.14   294.6
#Mann= 3 , 0 , 0 
       0     .15       0  281.67     .05       0   330.8     .15       0
Bank Sta=281.67,330.8
XS Rating Curve= 0 
Exp/Cntr=0.3,0.1

Type RM Length L Ch R = 1 ,1.59    ,192.86,199.88,209.56
XS GIS Cut Line=3
       582384.79        49093.61       582088.05        49037.95
       581870.14        49033.31
Node Last Edited Time=Dec/21/1999 15:31:56
#Sta/Elev= 65 
       0  262.39    9.77     260   14.79  258.14   16.99  257.42   21.09  256.02
   46.03  251.99  105.58  248.34  108.29  248.22  113.28  247.95  118.66  246.13
   121.6  245.27  123.69  244.73  147.43  242.12  156.42  240.96  183.27  244.54
  185.38  243.99  191.99   240.4  193.66  239.72  196.37  237.86  198.62  236.03
  202.45  233.94  207.07  232.01   209.8  230.16  213.34  228.03  222.11  225.79
  245.89  219.45  246.37  218.31  248.12  214.09  250.31  208.76   262.7   207.8
   267.2   208.5  273.11  209.39   276.6  215.08  278.85  219.79  279.45  220.01
  302.34  228.31  306.96  231.26  311.67  233.71  315.06  235.32  316.53  236.03
  318.06  236.37     336  238.75  341.85  238.85  368.33  238.37   370.2   238.3
  422.32  238.93  423.45  238.86   425.5  238.75  426.66  238.72   441.2  238.98
  442.39  238.97   448.9  239.82  449.95  240.01     451  240.16  454.28  240.01
  467.14  241.25  468.97  241.36  473.96  243.99  476.41  245.52  481.46  248.01
  490.79  251.96  497.07  256.02  505.84  257.82  514.15  260.03  521.74  262.52
#Mann= 3 , 0 , 0 
       0     .15       0  246.37     .05       0  279.45     .15       0
Bank Sta=246.37,279.45
XS Rating Curve= 0 
Exp/Cntr=0.3,0.1

Type RM Length L Ch R = 1 ,1.55    ,195.4,191.28,188.08
XS GIS Cut Line=3
       582389.43        48917.36       582134.42        48838.51
       581879.41        48810.68
Node Last Edited Time=Dec/21/1999 15:31:56
#Sta/Elev= 91 
       0  251.16    3.56  250.04   11.65  248.01   13.88  240.01   16.76  240.01
   36.04  238.87   38.97  238.85   46.06  238.99   62.54  240.01   64.03  239.96
   72.78  235.99   75.07  232.01   77.52  231.19   82.76  229.78   84.84  229.63
   86.23  229.34   88.65  229.26   91.61  228.96   96.92  228.91   99.77   228.8
  104.62  228.78  107.28  228.72   108.6  228.66  110.64  228.53  112.81  228.34
  113.98   228.2   116.8  227.98  118.72  227.63     121  227.29   123.5  226.89
  125.84  226.66  128.21  226.28  130.79     226  141.66  225.43  142.96  225.18
  153.72  223.21  156.43  222.51  160.46   221.6  165.62  220.03  168.17  219.44
  171.66  218.59  179.66     216  188.29  213.34  189.98  212.84  192.55  212.02
  205.61  209.76   208.5  205.19  210.84  200.69  216.47  198.58   221.1  197.02
   232.4  198.06   234.4  202.62  237.06  208.77  249.61   214.3   254.3     216
  256.13  216.21  259.06  216.53  264.21  217.01  267.71  217.25  275.84  217.87
  281.65  217.91  283.77  218.01  290.34  218.14   292.7  218.26   298.5  218.36
  308.92  218.78  329.34  218.73  330.73  218.68  333.74  218.53  345.46  218.68
  347.81   218.5  349.63  218.34  353.24  218.39  357.32  217.94  359.72  217.62
  366.68  216.42  367.97  216.45  369.51     216  417.28     216  426.94  219.99
   437.9     224   455.1  226.36  468.35  228.03  479.04  240.01  495.03   255.3
  496.84  256.78  498.87  258.29  501.69  260.17  513.59  264.02  517.98  265.39
  524.24  267.39
#Mann= 3 , 0 , 0 
       0     .15       0  205.61     .05       0  237.06     .15       0
Bank Sta=205.61,237.06
XS Rating Curve= 0 
Exp/Cntr=0.3,0.1

Type RM Length L Ch R = 1 ,1.52    ,208.05,210.21,208.44
XS GIS Cut Line=3
       582496.07        48736.48       582190.06        48657.63
       581893.32        48625.16
Node Last Edited Time=Dec/21/1999 15:31:56
#Sta/Elev= 55 
       0  241.06    5.04  240.01   20.27  235.95   29.65  232.01   36.97  230.45
   51.97  227.13   64.85     224   71.29     224  121.33  221.54  122.91  221.52
  136.88  219.98  140.17  219.66  188.76  215.89  190.18  215.66  207.06  212.02
  214.77  210.18  219.45  208.92  230.28  205.94   238.1  204.02  246.62  202.68
  261.55  200.09  261.66  199.81  264.62  192.09   265.5  189.66  274.45  188.45
  276.78  188.21  282.78  189.62  287.27  190.64  289.17  193.86  292.92  200.05
  293.01  200.07  316.03  205.25  328.02     208  479.06     208  484.67  209.21
  495.17  211.53  519.97  217.36  533.97  218.44  536.37  220.03  552.37   223.3
  553.58   223.2  556.11     224   571.5  228.03   576.9  228.03  579.85  228.06
  583.18  228.47   584.4  228.56  593.14  229.42  594.84  229.54  599.42  229.89
  602.79  230.21  606.09   230.5   608.4  230.75  612.64  231.17  614.79  231.41
#Mann= 3 , 0 , 0 
       0     .15       0  261.66     .05       0  293.01     .15       0
Bank Sta=261.66,293.01
XS Rating Curve= 0 
Exp/Cntr=0.3,0.1

Type RM Length L Ch R = 1 ,1.48    ,203.22,197.64,193.52
XS GIS Cut Line=3
       582565.61        48550.95       582231.79        48448.91
       581939.69        48439.64
Node Last Edited Time=Dec/21/1999 15:31:56
#Sta/Elev= 70 
       0  246.33    5.48  243.99   14.03  241.59   20.15  239.45   29.48  236.82
   35.08  235.21   43.82  232.94      51  230.92   56.54  229.32    61.6  227.98
   64.09  226.92   75.33     224   76.79     224   79.68  222.82   80.91  222.88
   82.77  221.62   85.42  221.76    87.2  221.74  107.37  220.06  146.39  212.02
   150.2  212.02  152.18  212.01   174.5   205.6  190.05  205.07  191.85  205.05
  214.44  204.02  218.73  204.02  234.64  200.01  240.04  196.34  257.97     192
  266.72  190.99  280.25   189.7  280.39  189.48  283.09  185.21  284.76  182.36
  291.95   182.5  296.02  182.53  304.82  182.35  307.25  182.38  308.24  183.84
  312.36  189.78  312.54  189.89  321.84  195.22  326.91   196.9  328.27  197.17
  331.63  197.58  332.93  197.82  341.84  199.19  344.28  199.35  347.17  199.99
  364.24  199.99  424.65  200.64  445.94  199.99  496.84  199.99  502.58   202.5
  506.27  204.02  508.46  204.43  515.25  205.32  561.75  212.02  568.18  214.57
  572.39     216  582.81  220.03  591.62  224.03  600.88  228.08  618.77  236.02
  619.97  236.57  627.73  240.01  636.07  244.04  641.73  248.68  641.77   248.7
#Mann= 3 , 0 , 0 
       0     .15       0  280.39     .05       0  312.54     .15       0
Bank Sta=280.39,312.54
XS Rating Curve= 0 
Exp/Cntr=0.3,0.1

Type RM Length L Ch R = 1 ,1.44    ,204.96,202.74,199.44
XS GIS Cut Line=3
       582625.89        48342.24       582268.88        48258.75
       582013.87        48249.47
Node Last Edited Time=Dec/21/1999 15:31:56
#Sta/Elev= 52 
       0  230.48    2.96  230.46    6.75   230.4   28.28  222.63   29.97   222.4
   31.61  221.98   32.74  221.71   41.86  220.54   85.43     224   99.01  214.75
   107.9     208  110.84  205.22  111.95  204.12  154.81  200.77  162.53  200.45
  165.09  200.17  166.63  199.98  177.14  197.81  183.99  196.02  192.56  192.82
  194.65  192.01  196.45  191.34  203.69     188  262.47  184.59  266.13  184.22
  290.15  182.62   299.7  181.79   305.3  174.29  307.64  171.08  311.33  170.76
  319.98  169.87  324.12   170.5  332.33  171.93  335.58  177.25  341.45  186.91
  355.29  192.08  363.82  195.06     367  196.02  519.83  196.02  524.66  196.05
  531.85  199.73  535.63  200.03  553.85  203.11  556.52  204.02  563.67  204.69
  587.89     208  590.24  209.36  594.91  212.02  598.42  213.45  609.38  218.31
  613.16  220.03  622.29  223.74
#Mann= 3 , 0 , 0 
       0     .15       0   299.7     .05       0  341.45     .15       0
Bank Sta=299.7,341.45
XS Rating Curve= 0 
Exp/Cntr=0.3,0.1

Type RM Length L Ch R = 1 ,1.40    ,213.24,201.54,201.81
XS GIS Cut Line=3
       582584.16        48119.61        582296.7        48059.31
       582041.69        48054.67
Node Last Edited Time=Dec/21/1999 15:31:56
#Sta/Elev= 61 
       0  197.19    1.08  197.06    3.78  196.83     4.9  196.81    9.75  196.02
   14.92  196.02   19.97  195.52    28.2  192.01   48.04  190.38   49.31  190.32
   52.85   190.2   55.42  190.13   56.62  190.03   75.54  189.82   78.18  189.81
   79.59  189.87   97.48     188   98.62  187.92  100.49  187.54  115.73  183.98
  136.15  180.01  168.12  175.98  180.06  175.98   217.1   174.4   218.2  174.29
  220.26  174.29  221.73  174.24  228.46  173.46   228.9  173.15  234.72  169.05
  243.11  163.47  247.93  163.83  251.16     164  254.04  163.86  259.21   163.4
   279.4  183.44  282.33  186.42  283.05  186.23  286.59  186.76   294.5  187.23
  299.58  187.58  300.76   187.5  302.01  187.78  303.05   187.8  307.63  188.01
  359.92  188.01  375.93  188.75  397.79  188.01  409.94  187.28  452.41  187.71
  454.61  188.01  458.53  190.56  460.68  191.99  461.94  191.99  468.39   192.5
  520.45  196.01  525.92   199.1  528.58  199.99  540.53  204.01  544.41  205.12
  551.43  207.26
#Mann= 3 , 0 , 0 
       0     .15       0   228.9     .05       0  283.05     .15       0
Bank Sta=228.9,283.05
XS Rating Curve= 0 
Exp/Cntr=0.3,0.1

Type RM Length L Ch R = 1 ,1.36    ,196.29,201.99,204.21
XS GIS Cut Line=3
       582658.34        47915.53       582440.43        47873.79
       582060.23        47845.96
Node Last Edited Time=Dec/21/1999 15:31:56
#Sta/Elev= 75 
       0  187.07   12.43  185.44   17.79  184.93   22.72   184.3   27.39     184
   29.88  183.57   31.28  183.09   39.32  180.04   42.63  177.21   45.38  175.91
   48.83  175.25   56.02  173.56   60.28  172.52   62.69  172.02    65.8  171.26
   67.88  170.59   71.79  169.47    76.7  168.01      80  168.01   90.29  167.02
   92.49  166.95    93.6  166.89   94.89  166.83   96.61  166.76   97.76  166.75
  111.57  166.03  115.12  166.04  118.55  166.02  127.84  166.38  129.66   166.5
  131.62   166.5  134.52  166.57  136.57  166.59  141.22   166.9  153.54  166.46
   164.7  166.63  167.19   166.7  168.35  166.74  198.45  168.01  222.51  168.63
  232.28  168.93  239.45  169.02   250.9  167.07  264.44     167  266.57     167
  285.81  162.91  288.05  154.17  310.46  151.95  322.11  163.12  325.42  166.32
  334.34  166.42  374.24  168.01  377.96  168.01  407.74  169.72  408.84  169.76
  409.98  169.79  446.02  172.01  453.91  172.01  494.06  175.13  499.65  175.62
  502.83  175.93  507.01  176.26  509.87  176.44  514.91  176.69  517.12  176.84
  518.13  176.93  519.16  177.04  520.73  177.24  543.99  179.97  564.72  182.17
  568.77  182.36  574.63  184.66  590.75  190.22   597.8  192.01  603.74   193.8
#Mann= 3 , 0 , 0 
       0     .15       0  285.81     .05       0  325.42     .15       0
Bank Sta=285.81,325.42
XS Rating Curve= 0 
Exp/Cntr=0.3,0.1

Type RM Length L Ch R = 1 ,1.32    ,200.48,195.88,178.76
XS GIS Cut Line=4
       582797.44        47720.73       582667.62        47711.46
       582343.06        47660.44       582064.87        47651.16
Node Last Edited Time=Dec/21/1999 15:31:56
#Sta/Elev= 84 
       0   193.2    4.13  192.01   10.15  190.47   20.08     188    30.2  185.07
   34.51     184   37.61  183.03   46.38  180.02   52.23  177.76   56.77  175.98
    65.5  172.62   67.55  172.02   79.17  168.01   91.39  165.34   97.88     164
  107.21  162.02  116.25     160  125.26     160  130.49  159.76  144.94  159.05
  186.65  157.77  203.32  156.03  228.04  156.03  263.53  154.93  266.01  154.95
  270.83  155.06  367.01  155.85  373.17  155.76  390.93   154.7  390.95  154.67
  393.71  150.13  399.74  139.94  406.89  139.66  409.12  139.55  411.05  139.84
  417.84  141.16   423.8  152.37  425.84  155.82  425.92  155.83     433  156.77
  434.75  157.02  444.86  157.82  447.64  158.26  450.35  158.63  454.55  159.15
  455.97  159.31  459.04  159.62  460.35  159.63  463.31   159.9  467.76     160
  481.04  159.77  485.91  159.89  489.66  159.93  500.66  159.79  503.58  159.84
  539.03  159.02  540.48  159.03  543.24  159.09  549.12  159.35  550.25  159.39
  554.53   159.6  564.47  159.87  566.85  159.91  571.55   159.9  575.07  159.94
  577.71  160.01  590.78  160.67  596.15  160.87  598.52  160.93  601.76  160.99
  606.66  160.63  608.68  160.19  622.89  162.67  625.77  162.91  633.28  164.01
   637.2  164.01  653.46  165.47  682.52   167.3  691.41  168.01  718.64  171.31
  724.14  172.05  725.84  172.75  733.26  176.01  737.77  177.65
#Mann= 3 , 0 , 0 
       0     .15       0  390.95     .05       0  425.92     .15       0
Bank Sta=390.95,425.92
XS Rating Curve= 0 
Exp/Cntr=0.3,0.1

Type RM Length L Ch R = 1 ,1.29    ,140.2,139.14,126.3
XS GIS Cut Line=4
       582774.26        47502.74       582593.43        47493.46
       582343.06        47465.64       582083.42        47502.74
Node Last Edited Time=Dec/21/1999 15:31:56
#Sta/Elev= 70 
       0  170.55    1.53  170.12    4.27  169.46    6.64  168.87   10.79  168.01
    16.7  167.16   23.08  166.18   25.14  165.62   28.26  164.97   29.74  164.56
   32.25     164   35.76     164   44.66  161.26   53.24  160.53   56.83     160
   66.71  158.61   82.41  156.03   89.66  156.03   95.42   155.3  119.36  152.02
  133.56  150.15  151.09  148.01  173.07  148.01  181.74  147.79  216.85  146.81
  251.46  146.44  322.55  147.19  337.03  145.44  342.77  144.34  343.96  140.46
  345.44  134.93  353.96  132.18  360.21  130.25  371.38  132.35  384.17   144.7
  386.27  146.85  398.38  148.04  413.94  148.03   417.7  148.23  418.85  148.22
  421.12  148.25  433.69  148.32  488.66  149.33  495.39  149.38     502  149.25
  507.71  149.09  513.09  148.84  515.11  148.76  516.17  148.73  517.57   148.7
   521.1  148.59  523.76  148.57  526.95  148.57  532.82  148.61  545.85  148.45
  552.01  148.33  556.35  148.53  559.38  148.57  561.38  148.77  562.99  148.82
   565.6  148.95  568.49  149.27  571.82  149.67  575.27  150.12   577.8  150.34
  589.36     152     654  156.01     685  160.01  689.94  161.65  695.99  164.06
#Mann= 3 , 0 , 0 
       0     .15       0  342.77     .05       0  386.27     .15       0
Bank Sta=342.77,386.27
XS Rating Curve= 0 
Exp/Cntr=0.3,0.1

Type RM Length L Ch R = 1 ,1.26    ,206.29,362.07,375.34
XS GIS Cut Line=4
       582641.92        47366.53       582444.45        47335.45
       582336.57        47337.28        582062.3        47381.16
Node Last Edited Time=Dec/21/1999 15:31:56
#Sta/Elev= 63 
       0  149.81    9.61  148.01   12.77  148.01   28.03  147.33   48.81  146.53
  104.91  144.01  122.79  144.01  199.96  140.26  205.27  139.99   210.4  137.29
  222.74  138.04  223.58  137.12  233.14  126.54   237.1  126.04  248.11  124.28
  258.92  126.39  263.03  130.09  276.42  141.93  277.41  141.77  283.08  140.88
  284.62  140.91  291.62  140.78  295.01   140.8  296.65  140.86  298.04  140.93
   305.9  140.93  307.85  141.01  310.91  141.16  313.14   141.3  386.33  142.18
  393.06  141.79   394.6  141.68   396.2   141.7  398.95  141.56     401   141.5
  402.28   141.5  404.84  141.39  405.94  141.38  409.61  141.25  412.52  141.19
  414.24  141.13   419.4  141.03  435.93   140.4  440.85  140.41  442.18  140.62
  443.62  140.79   445.5  141.44  448.31  142.24  453.91  144.01  462.78  145.75
  465.89  146.34  475.46  148.01  522.99  148.01  535.25  150.51  541.84  152.01
  543.76  152.01  565.54  155.24  567.92   155.5  571.48  156.06   576.7  157.44
  584.32  159.98  587.48   160.8  587.74  160.83
#Mann= 3 , 0 , 0 
       0     .15       0  223.58     .05       0  277.41     .15       0
Bank Sta=223.58,277.41
XS Rating Curve= 0 
Exp/Cntr=0.3,0.1

River Reach=Kului Gorge     ,Headwaters      
Reach XY= 13 
       583638.69        47559.38        583503.5        47549.26
       583398.19        47550.86       583280.44        47503.28
       583144.38        47285.03       583116.31        47174.19
       582994.56        47075.17       582804.44        47092.62
       582635.44        47201.36       582579.25         47216.1
       582525.25        47206.67       582396.38        47138.95
       582307.31        46985.66
Rch Text X Y=583837.7145492,47789.5610909
Reverse River Text= 0 

Type RM Length L Ch R = 1 ,0.31    ,84.54,89.12,82.02
XS GIS Cut Line=4
       583613.16        47441.98        583567.8        47529.68
       583558.73        47575.04        583567.8        47638.55
Node Last Edited Time=Dec/21/1999 15:31:56
#Sta/Elev= 31 
       0  309.74       7  308.42    8.94  308.01   10.34  306.56   13.35  302.85
   15.26     300   29.75  294.37   67.22  277.47   77.15  275.69   78.32  275.56
   79.69  275.54   83.46  275.32    86.1  275.09   89.47  274.71   90.56  274.54
   92.39   274.2   98.81  270.61  107.34  265.91  116.37  261.55  120.99  261.33
  123.33  261.21  125.43  261.02  131.68  260.34  145.07   264.5  152.61  267.06
  162.15  269.48  172.42  271.99  178.49  272.65  202.99     276  207.74  277.62
  209.22   278.1
#Mann= 3 , 0 , 0 
       0     .15       0  116.37     .05       0  131.68     .15       0
Bank Sta=116.37,131.68
XS Rating Curve= 0 
Exp/Cntr=0.3,0.1

Type RM Length L Ch R = 1 ,0.29    ,117.88,135.02,139.86
XS GIS Cut Line=4
       583537.56        47429.88       583474.05        47529.68
       583474.05        47568.99        583492.2        47662.74
Node Last Edited Time=Dec/21/1999 15:31:56
#Sta/Elev= 30 
       0   277.4    2.22  277.07    4.45  276.93   10.18     276   14.23  274.17
   15.33  273.62   22.07  271.99   61.41  265.53   68.39  264.64   86.62  264.21
   90.29  263.85   95.94   262.7  102.92  262.03  106.87  261.39  107.96  261.19
  116.16  258.18  119.09  257.31  131.74  253.67  139.12  253.58  145.84  252.74
  147.81  252.57   158.4  255.55  187.73  264.47  199.15  268.04  209.47  271.99
  217.71  272.96  241.95  276.03  244.19   276.5  252.86  278.37  253.93  278.61
#Mann= 3 , 0 , 0 
       0     .15       0  131.74     .05       0  147.81     .15       0
Bank Sta=131.74,147.81
XS Rating Curve= 0 
Exp/Cntr=0.3,0.1

Type RM Length L Ch R = 1 ,0.27    ,212.94,248.34,247.74
XS GIS Cut Line=4
       583449.86        47351.25       583350.06        47508.51
       583337.97         47544.8       583347.04        47671.81
Node Last Edited Time=Nov/08/2002 09:24:28
#Sta/Elev= 42 
       0  260.01    5.45  259.07   16.11  256.06   33.06  255.09   47.89  254.34
   50.17  254.24   56.31  254.12   59.85  254.12   68.58  254.21   97.52  254.25
  103.22  254.09  104.45   254.1   116.4  253.57  117.69  253.55  118.96  253.51
  125.44  253.17  139.33  251.99  142.21  251.99  146.12  251.11   186.3   242.4
  201.24  239.47  207.62  239.27  213.91  239.55   235.3  247.78  247.36  251.99
  248.51  252.92  252.53  255.32   260.5  260.01  265.72  260.91  280.84  264.01
  287.64  265.87  290.58   266.7  293.21  267.49  294.92  268.02  298.07  269.91
  302.34  271.99  306.21  273.72  312.69   276.9  317.56     280   329.7  285.57
  334.91     288  351.88  295.96
#Mann= 3 , 0 , 0 
       0     .15       0  146.12     .05       0  247.36     .15       0
Bank Sta=146.12,247.36
XS Rating Curve= 0 
Exp/Cntr=0.3,0.1

Type RM Length L Ch R = 1 ,0.22    ,261.54,255.06,202.86
XS GIS Cut Line=4
       583337.97        47187.95       583207.93        47327.06
        583153.5         47381.5       583126.28        47608.31
Node Last Edited Time=Dec/21/1999 15:31:56
#Sta/Elev= 70 
       0  257.74    7.69     256   11.38  251.98   14.29  249.84   16.54  247.99
   54.05  245.54   69.02  245.09   72.86  244.87   82.49  244.05   90.37  241.53
   91.58  241.27   92.71  241.17   95.88  240.49   97.62  240.54  102.47  240.01
  126.36  234.76  133.38  234.42   134.5   234.4  135.73  234.24  137.14  233.84
     142  232.91   145.1  232.18  153.35     232  156.67     232  167.55  231.83
  170.92     232  179.51  232.36   187.7  232.52   196.7  228.99  218.88  215.14
  220.31  215.09  223.13  214.98  224.43  214.98  227.36  214.96  254.09  233.75
  267.56  241.62  286.68  245.95  287.94   246.8  291.31  248.07  300.92  252.94
  302.52  253.89  304.22  254.62  307.66  256.31  312.91  259.28  314.37  260.01
  316.52  261.29  322.38  265.34  328.89  267.73  332.24  269.21  334.96  270.56
  342.15  274.37  344.79     276  352.45  279.15  367.04  288.33  368.11  288.91
  369.81  289.81  372.24  290.92  375.26  292.18  383.46  297.99  386.48     300
  389.56  302.83  394.69  308.01  400.59  308.53  445.02  315.78   476.7  315.98
  481.44  317.65  487.62  319.99  490.81  322.14  493.55     324  496.09  326.92
#Mann= 3 , 0 , 0 
       0     .15       0  218.88     .05       0  227.36     .15       0
Bank Sta=218.88,227.36
XS Rating Curve= 0 
Exp/Cntr=0.3,0.1

Type RM Length L Ch R = 1 ,0.17    ,187.96,193.2,163.24
XS GIS Cut Line=3
       583223.05        46967.19       583071.84        47103.28
       583020.43        47402.66
Node Last Edited Time=Dec/21/1999 15:31:56
#Sta/Elev= 72 
       0   232.6   22.69     232   32.44     232   34.37   231.1   37.13  230.11
    39.7   229.1   42.81  227.99   44.31  227.24   52.48  223.99   62.67  221.75
   66.67     220   69.89   218.9   75.04  217.28   81.41  216.03   85.45  215.19
   102.5     212  103.95  211.83  107.46  211.54  135.42   209.4  136.54  209.43
  150.81  209.28  154.45  209.15  156.33   209.1  177.63     208  183.19  207.89
  191.67  203.97  193.63  203.33  205.15  199.25  217.51  196.07  221.99  194.73
  224.77  194.08  226.73  193.67  227.74  193.46  229.82  193.16   236.2  192.13
   244.3  193.94  251.77  197.89  275.59     212  281.01  215.96  285.71  219.25
  298.11  226.84  299.72  227.99  306.27  231.23  310.62  233.45  315.95  236.01
   320.5  239.25  324.05  242.16  333.67  248.54  341.88  253.16  346.09     256
  347.71  257.17  349.48  258.88  356.36  263.76  376.18  268.02  399.14  272.14
     403  272.99  415.36  272.64  416.69  272.64  419.35  272.62  422.96  274.09
  424.17  274.07  425.97  273.94  427.91  275.25  434.71  277.07  450.95  274.19
  459.96  276.14  483.11  284.64   495.2  286.11  498.19  286.35  499.65  286.43
   507.9  286.66  509.05  286.58
#Mann= 3 , 0 , 0 
       0     .15       0  226.73     .05       0   244.3     .15       0
Bank Sta=226.73,244.3
XS Rating Curve= 0 
Exp/Cntr=0.3,0.1

Type RM Length L Ch R = 1 ,0.14    ,187.96,168.96,147.16
XS GIS Cut Line=4
       583093.01        46809.94       582896.44        47045.82
        582890.4        47175.86       582920.64        47414.76
Node Last Edited Time=Dec/21/1999 15:31:56
#Sta/Elev= 107 
       0   204.9   13.09  203.99   29.03  201.97   40.17  201.94   43.29  201.67
   60.14  199.98   70.27  198.58   71.83  198.32   76.09  197.76   86.79  196.02
   87.97  195.71  107.31  192.01  128.26  189.66   130.1  189.41  133.74  188.97
  142.29  188.02  146.18  187.77     148  187.67  151.31  187.55  153.66  187.43
  157.93  187.29  162.59  187.19  171.37  187.07  194.99     188  208.23   189.2
  209.78  189.27  213.35   189.5  219.39  189.84  224.38  190.01  229.13  190.13
  231.03  190.14  251.51  189.28  253.33  189.16  257.13  188.88  258.28  188.84
  267.96     188   269.3     188  272.39  187.71  278.12  187.32  280.25  187.15
  282.41  187.04  285.52  186.79  287.92  186.67  296.09  186.15  301.52  185.73
  307.13  184.53  322.99  179.82  337.76  173.45  345.69  171.97     354  172.78
  354.98  173.13  357.21  173.91  375.06  181.52  376.59  181.61   377.7  181.66
  380.07  181.72  381.28  181.74  383.58  182.04  400.24  181.54  402.24  181.55
  404.46  181.07  409.82  180.12  411.66  179.68  415.93  178.98  417.08  178.81
  419.01  178.59  420.05  178.51  421.72  178.39  422.74  178.34  424.69  178.32
  425.82  178.27  428.61  178.31  430.59  178.31  433.26  178.37  435.46  178.49
  437.32  178.57  449.91  180.03  452.55   180.9  461.97  183.03  466.78     184
  473.51  185.23  481.06  186.69  489.15     188  493.27  188.97   497.4   189.8
  500.66  190.49  511.76  192.42  516.66  194.16  528.44   196.5  531.35  196.58
  544.05  199.72  549.19  200.13  557.36  201.85  565.49   202.7  576.82  204.32
  598.52  208.03  616.04  211.37  621.55  213.23  630.17  214.03  636.52  215.38
  639.67  216.36  656.15  220.93  662.26  223.47  665.73  225.37  675.48  230.25
  677.06  230.31  678.23  230.99
#Mann= 3 , 0 , 0 
       0     .15       0  337.76     .05       0  354.98     .15       0
Bank Sta=337.76,354.98
XS Rating Curve= 0 
Exp/Cntr=0.3,0.1

Type RM Length L Ch R = 1 ,0.11    ,176,91.56,70.08
XS GIS Cut Line=4
       582813.88        46865.74       582726.07        47049.92
       582749.63        47210.55       582822.45        47401.16
Node Last Edited Time=Dec/21/1999 15:31:56
#Sta/Elev= 109 
       0   167.9    8.22  168.01   15.65  168.22   23.43  168.38   27.55  168.43
    35.5  168.45   37.99  168.48    41.1  168.37   48.21  167.98   52.46  167.86
   58.32  167.74   60.92  167.71   70.75  167.72   83.05  167.87   91.37  168.15
  106.34  169.22  112.29  169.78  119.62  170.39  121.29  170.35  123.96  170.13
  127.64  170.27  129.07  170.28  130.85  170.08  132.05  170.07  134.72     170
   136.5  169.87  141.71  169.46  146.22  169.16  153.61  168.57  159.39  168.45
  162.18  168.41  163.43  168.42  167.68  168.41  171.96  168.51  172.99  168.51
  180.74  168.84   184.2  168.84  188.12  168.97  189.99  169.01  193.82  169.05
  195.72  169.06  198.63  169.06   201.3  169.02  202.63  169.01  204.08  168.96
  208.09  169.07  210.44  169.11  215.68  169.16  223.89   169.1   230.8  168.94
  238.16  168.01  243.26  168.01  248.51  166.43  252.24  164.96  254.18  164.69
  257.47  164.41  274.88  165.68   278.1  162.62  284.77  152.99  286.73   152.8
  292.25  152.23  295.68   152.5  302.08  152.94  306.42  156.13  308.09  157.37
  308.68  157.88  311.03   159.2  331.76  162.45  333.31  162.55  335.82   162.7
  339.98   162.9  342.34   163.1  346.54  163.22  348.67  163.26  349.86  163.34
   351.5  163.36  353.27  163.47  356.24  163.46  359.42  163.42  360.46  163.48
  366.53  163.38  368.61  163.46  373.41   163.5  376.02  163.54  381.91  163.66
  399.24  164.26  412.14  164.86  415.85  165.09  417.32  165.19  428.83  165.79
   459.5  167.57  468.04  168.01  474.15  168.41  489.22  169.03  492.62  169.07
  500.03  169.29  509.28  169.46  512.61  169.49  514.02  169.53  515.62  169.53
  522.15  169.78  533.29  169.75  540.53  170.17  549.83  170.14  559.55  171.02
  561.51     171  562.82  171.03   570.6  172.02  572.91  172.48
#Mann= 3 , 0 , 0 
       0     .15       0  274.88     .05       0  308.68     .15       0
Bank Sta=274.88,308.68
XS Rating Curve= 0 
Exp/Cntr=0.3,0.1

Type RM Length L Ch R = 1 ,0.09    ,101.94,115.2,136.78
XS GIS Cut Line=4
       582625.47        47015.47       582634.61        47130.66
       582682.15        47225.74       582713.23        47326.31
Node Last Edited Time=Dec/21/1999 15:31:56
#Sta/Elev= 50 
       0  155.17    44.9  155.73   49.38  156.03   50.39  156.13   57.47  156.68
   59.43  156.79   61.93  156.79   66.23  156.97   69.03  157.05   75.27  157.26
   77.03   157.3   87.46  157.62  100.16  157.42  105.25  157.31  107.23  157.31