Flow Title=Unsteady Flow Hydrograph
Version=Version 3.1 Beta  Mar 2002
Use Restart= 0 
Initial Flow Loc=Nittany River   ,Weir Reach      ,60.1    ,5000
Boundary Location=Nittany River   ,Weir Reach      ,60.1    ,        ,                ,                
Interval=1HOUR
Flow Hydrograph= 100 
 5179.57 5716.45 6605.13 7836.48 9397.8711273.2813443.4715886.1618576.2921486.26
24586.2127844.3231227.1634700.0338227.2841772.7245299.9748772.8452155.68 55413.8
58513.7461423.7164113.8466556.5368726.7270602.1372163.5273394.8874283.5574820.43
   7500074820.4374283.5573394.8872163.5270602.1368726.7266556.5364113.8461423.71
58513.74 55413.852155.6848772.8445299.9741772.72 39979.338273.3436650.5835106.96
33638.6332241.91 30913.3 29649.528447.3327303.7926216.02 25181.324197.05 23260.8
22370.2121523.0520717.2119950.6819221.5318527.9317868.1717240.58 16643.616075.73
15535.5615021.7414532.9714068.0413625.7913205.1112804.9412424.29 12062.211717.77
11390.1411078.4910782.0410500.0510231.81 9976.65 9733.94 9503.06 9283.44 9074.53
 8875.82 8686.79 8506.98 8335.95 8173.25 8018.49 7871.28 7731.24 7598.04 7471.33
DSS Path=
Use DSS=False
CWMS InputPosition= 0 
Use Fixed Start Time=False
Fixed Start Date/Time=,
Is Critical Boundary=False
Critical Boundary Flow=
Boundary Location=Nittany River   ,Weir Reach      ,41.75   ,        ,                ,                
Gate Name=Left Group  
Gate DSS Path=
Gate Use DSS=False
Gate Time Interval=1HOUR
Gate Use Fixed Start Time=False
Gate Fixed Start Date/Time=,
Gate Openings= 100 
       3    3.23    3.47     3.7    3.93    4.17     4.4    4.63    4.87     5.1
    5.33    5.57     5.8    6.03    6.27     6.5    6.73    6.97     7.2    7.43
    7.67     7.9    8.13    8.37     8.6    8.83    9.07     9.3    9.53    9.77
      10    9.88    9.77    9.65    9.54    9.42     9.3    9.19    9.07    8.96
    8.84    8.72    8.61    8.49    8.38    8.26    8.14    8.03    7.91     7.8
    7.68    7.57    7.45    7.33    7.22     7.1    6.99    6.87    6.75    6.64
    6.52    6.41    6.29    6.17    6.06    5.94    5.83    5.71    5.59    5.48
    5.36    5.25    5.13    5.01     4.9    4.78    4.67    4.55    4.43    4.32
     4.2    4.09    3.97    3.86    3.74    3.62    3.51    3.39    3.28    3.16
    3.04    2.93    2.81     2.7    2.58    2.46    2.35    2.23    2.12       2
Gate Name=Middle Group
Gate DSS Path=
Gate Use DSS=False
Gate Time Interval=1HOUR
Gate Use Fixed Start Time=False
Gate Fixed Start Date/Time=,
Gate Openings= 100 
       5    5.17    5.33     5.5    5.67    5.83       6    6.17    6.33     6.5
    6.67    6.83       7    7.17    7.33     7.5    7.67    7.83       8    8.17
    8.33     8.5    8.67    8.83       9    9.17    9.33     9.5    9.67    9.83
      10    9.93    9.86    9.78    9.71    9.64    9.57    9.49    9.42    9.35
    9.28     9.2    9.13    9.06    8.99    8.91    8.84    8.77     8.7    8.62
    8.55    8.48    8.41    8.33    8.26    8.19    8.12    8.04    7.97     7.9
    7.83    7.75    7.68    7.61    7.54    7.46    7.39    7.32    7.25    7.17
     7.1    7.03    6.96    6.88    6.81    6.74    6.67    6.59    6.52    6.45
    6.38     6.3    6.23    6.16    6.09    6.01    5.94    5.87     5.8    5.72
    5.65    5.58    5.51    5.43    5.36    5.29    5.22    5.14    5.07       5
Gate Name=Right Group 
Gate DSS Path=
Gate Use DSS=False
Gate Time Interval=1HOUR
Gate Use Fixed Start Time=False
Gate Fixed Start Date/Time=,
Gate Openings= 100 
       7     7.1     7.2     7.3     7.4     7.5     7.6     7.7     7.8     7.9
       8     8.1     8.2     8.3     8.4     8.5     8.6     8.7     8.8     8.9
       9     9.1     9.2     9.3     9.4     9.5     9.6     9.7     9.8     9.9
      10    9.96    9.91    9.87    9.83    9.78    9.74     9.7    9.65    9.61
    9.57    9.52    9.48    9.43    9.39    9.35     9.3    9.26    9.22    9.17
    9.13    9.09    9.04       9    8.96    8.91    8.87    8.83    8.78    8.74
     8.7    8.65    8.61    8.57    8.52    8.48    8.43    8.39    8.35     8.3
    8.26    8.22    8.17    8.13    8.09    8.04       8    7.96    7.91    7.87
    7.83    7.78    7.74     7.7    7.65    7.61    7.57    7.52    7.48    7.43
    7.39    7.35     7.3    7.26    7.22    7.17    7.13    7.09    7.04       7
Boundary Location=Nittany River   ,Weir Reach      ,36.85   ,        ,                ,                
Interval=1HOUR
Rating Curve= 21 
   -20.5       0     -18    5000     -15   10000      -4   20000       5   33200
       6   37600     7.3   42000     8.6   47500      10   53000    11.3   59000
    12.6   65000    13.8   71500    14.8   79000    15.4   85500    16.6   93000
    17.4  101000    18.3  108000    19.2  116500    20.2  126000    21.2  135000
    23.2  152000
DSS Path=
Use DSS=False
CWMS InputPosition= 0 
Use Fixed Start Time=False
Fixed Start Date/Time=,
Is Critical Boundary=False
Critical Boundary Flow=
