Proj Title=Mixed Flow
Current Plan=p02
Default Exp/Contr=0.3,0.1
English Units
Geom File=g01
Flow File=f01
Unsteady File=u01
Plan File=p02
Plan File=p01
Y Axis Title=Elevation
X Axis Title(PF)=Main Channel Distance
X Axis Title(XS)=Station
BEGIN DESCRIPTION:

END DESCRIPTION:
DSS Start Date=01/01/2000
DSS Start Time=0100
DSS End Date=01/02/2000
DSS End Time=1400
DSS File=dss
DSS Export Filename=
DSS Export Rating Curves= 0 
DSS Export Rating Curve Sorted= 0 
DSS Export Volume Flow Curves= 0 
DXF Filename=
DXF OffsetX= 0 
DXF OffsetY= 0 
DXF ScaleX= 1 
DXF ScaleY= 10 
GIS Export Profiles= 0 
