Plan Title=Steady Mixed Flow Plan 
Short Identifier=Steady Mixed       
Geom File=g01
Flow File=f01
Multiple Comp Mode
Mixed Flow
Starting Rch & RM=            ,        
Ending Rch & RM=            ,        
K Sum by GR= 0
Std Step Tol= .01
Critical Tol= .01
Num of Std Step Trials= 20
Max Error Tol= .3
Flow Tol Ratio= .001
Log Output Level= 0
Friction Slope Method= 1
Calc Critical at every XS
Parabolic Critical Depth
