Geom Title=Mixed Flow Geometry Data
Program Version=5.00
Viewing Rectangle= 0.3945 , 0.4318 , 1 , 0 

River Reach=Mixed Reach     ,Mixed Reach     
Reach XY= 2 
          0.4286          0.9452          0.4286          0.1018
Rch Text X Y=0.4286,0.73435
Reverse River Text= 0 

Type RM Length L Ch R = 1 ,0.5682  ,20,20,20
BEGIN DESCRIPTION:
Ninetenth Cross Section
END DESCRIPTION:
Node Last Edited Time=Jan/22/2016 11:13:52
#Sta/Elev= 4 
       0      80       0      70      20      70      20      80
#Mann= 3 , 0 , 0 
       0               0       0    .015       0      20               0
Bank Sta=0,20
XS Rating Curve= 0 ,0
XS HTab Starting El and Incr=71,0.45, 50 
XS HTab Horizontal Distribution= 5 , 5 , 5 
Exp/Cntr=0,0

Type RM Length L Ch R = 1 ,.56442* ,20,20,20
Node Last Edited Time=Dec/19/2001 11:29:50
#Sta/Elev= 4 
       0    79.8       0    69.8      20    69.8      20    79.8
#Mann= 2 , 0 , 0 
       0       0       0       0    .015       0
Bank Sta=0,20
XS Rating Curve= 0 ,0
XS HTab Starting El and Incr=70.8,0.45, 50 
XS HTab Horizontal Distribution= 5 , 5 , 5 
Exp/Cntr=0,0

Type RM Length L Ch R = 1 ,.56064* ,20,20,20
Node Last Edited Time=Dec/19/2001 11:29:50
#Sta/Elev= 4 
       0    79.6       0    69.6      20    69.6      20    79.6
#Mann= 2 , 0 , 0 
       0       0       0       0    .015       0
Bank Sta=0,20
XS Rating Curve= 0 ,0
XS HTab Starting El and Incr=70.6,0.45, 50 
XS HTab Horizontal Distribution= 5 , 5 , 5 
Exp/Cntr=0,0

Type RM Length L Ch R = 1 ,.55686* ,20,20,20
Node Last Edited Time=Dec/19/2001 11:29:50
#Sta/Elev= 4 
       0    79.4       0    69.4      20    69.4      20    79.4
#Mann= 2 , 0 , 0 
       0       0       0       0    .015       0
Bank Sta=0,20
XS Rating Curve= 0 ,0
XS HTab Starting El and Incr=70.4,0.45, 50 
XS HTab Horizontal Distribution= 5 , 5 , 5 
Exp/Cntr=0,0

Type RM Length L Ch R = 1 ,.55308* ,20,20,20
Node Last Edited Time=Dec/19/2001 11:29:50
#Sta/Elev= 4 
       0    79.2       0    69.2      20    69.2      20    79.2
#Mann= 2 , 0 , 0 
       0       0       0       0    .015       0
Bank Sta=0,20
XS Rating Curve= 0 ,0
XS HTab Starting El and Incr=70.2,0.45, 50 
XS HTab Horizontal Distribution= 5 , 5 , 5 
Exp/Cntr=0,0

Type RM Length L Ch R = 1 ,0.5493  ,20,20,20
BEGIN DESCRIPTION:
Eighteenth Cross Section
END DESCRIPTION:
Node Last Edited Time=Dec/19/2001 11:29:50
#Sta/Elev= 4 
       0      79       0      69      20      69      20      79
#Mann= 3 , 0 , 0 
       0       0       0       0    .015       0      20       0       0
Bank Sta=0,20
XS Rating Curve= 0 ,0
XS HTab Starting El and Incr=70,0.45, 50 
XS HTab Horizontal Distribution= 5 , 5 , 5 
Exp/Cntr=0,0

Type RM Length L Ch R = 1 ,.5455*  ,20,20,20
Node Last Edited Time=Dec/19/2001 11:29:50
#Sta/Elev= 4 
       0    78.8       0    68.8      20    68.8      20    78.8
#Mann= 2 , 0 , 0 
       0       0       0       0    .015       0
Bank Sta=0,20
XS Rating Curve= 0 ,0
XS HTab Starting El and Incr=69.8,0.45, 50 
XS HTab Horizontal Distribution= 5 , 5 , 5 
Exp/Cntr=0,0

Type RM Length L Ch R = 1 ,.5417*  ,20,20,20
Node Last Edited Time=Dec/19/2001 11:29:50
#Sta/Elev= 4 
       0    78.6       0    68.6      20    68.6      20    78.6
#Mann= 2 , 0 , 0 
       0       0       0       0    .015       0
Bank Sta=0,20
XS Rating Curve= 0 ,0
XS HTab Starting El and Incr=69.6,0.45, 50 
XS HTab Horizontal Distribution= 5 , 5 , 5 
Exp/Cntr=0,0

Type RM Length L Ch R = 1 ,.5379*  ,20,20,20
Node Last Edited Time=Dec/19/2001 11:29:50
#Sta/Elev= 4 
       0    78.4       0    68.4      20    68.4      20    78.4
#Mann= 2 , 0 , 0 
       0       0       0       0    .015       0
Bank Sta=0,20
XS Rating Curve= 0 ,0
XS HTab Starting El and Incr=69.4,0.45, 50 
XS HTab Horizontal Distribution= 5 , 5 , 5 
Exp/Cntr=0,0

Type RM Length L Ch R = 1 ,.5341*  ,20,20,20
Node Last Edited Time=Dec/19/2001 11:29:50
#Sta/Elev= 4 
       0    78.2       0    68.2      20    68.2      20    78.2
#Mann= 2 , 0 , 0 
       0       0       0       0    .015       0
Bank Sta=0,20
XS Rating Curve= 0 ,0
XS HTab Starting El and Incr=69.2,0.45, 50 
XS HTab Horizontal Distribution= 5 , 5 , 5 
Exp/Cntr=0,0

Type RM Length L Ch R = 1 ,0.5303  ,20,20,20
BEGIN DESCRIPTION:
Sevententh Cross Section
END DESCRIPTION:
Node Last Edited Time=Dec/19/2001 11:29:50
#Sta/Elev= 4 
       0      78       0      68      20      68      20      78
#Mann= 3 , 0 , 0 
       0               0       0    .015       0      20               0
Bank Sta=0,20
XS Rating Curve= 0 ,0
XS HTab Starting El and Incr=69,0.45, 50 
XS HTab Horizontal Distribution= 5 , 5 , 5 
Exp/Cntr=0,0

Type RM Length L Ch R = 1 ,.52652* ,20,20,20
Node Last Edited Time=Dec/19/2001 11:29:50
#Sta/Elev= 4 
       0    77.8       0    67.8      20    67.8      20    77.8
#Mann= 2 , 0 , 0 
       0       0       0       0    .015       0
Bank Sta=0,20
XS Rating Curve= 0 ,0
XS HTab Starting El and Incr=68.8,0.45, 50 
XS HTab Horizontal Distribution= 5 , 5 , 5 
Exp/Cntr=0,0

Type RM Length L Ch R = 1 ,.52274* ,20,20,20
Node Last Edited Time=Dec/19/2001 11:29:50
#Sta/Elev= 4 
       0    77.6       0    67.6      20    67.6      20    77.6
#Mann= 2 , 0 , 0 
       0       0       0       0    .015       0
Bank Sta=0,20
XS Rating Curve= 0 ,0
XS HTab Starting El and Incr=68.6,0.45, 50 
XS HTab Horizontal Distribution= 5 , 5 , 5 
Exp/Cntr=0,0

Type RM Length L Ch R = 1 ,.51896* ,20,20,20
Node Last Edited Time=Dec/19/2001 11:29:50
#Sta/Elev= 4 
       0    77.4       0    67.4      20    67.4      20    77.4
#Mann= 2 , 0 , 0 
       0       0       0       0    .015       0
Bank Sta=0,20
XS Rating Curve= 0 ,0
XS HTab Starting El and Incr=68.4,0.45, 50 
XS HTab Horizontal Distribution= 5 , 5 , 5 
Exp/Cntr=0,0

Type RM Length L Ch R = 1 ,.51518* ,20,20,20
Node Last Edited Time=Dec/19/2001 11:29:50
#Sta/Elev= 4 
       0    77.2       0    67.2      20    67.2      20    77.2
#Mann= 2 , 0 , 0 
       0       0       0       0    .015       0
Bank Sta=0,20
XS Rating Curve= 0 ,0
XS HTab Starting El and Incr=68.2,0.45, 50 
XS HTab Horizontal Distribution= 5 , 5 , 5 
Exp/Cntr=0,0

Type RM Length L Ch R = 1 ,0.5114  ,20,20,20
BEGIN DESCRIPTION:
Sixtenth Cross Section
END DESCRIPTION:
Node Last Edited Time=Dec/19/2001 11:29:50
#Sta/Elev= 4 
       0      77       0      67      20      67      20      77
#Mann= 3 , 0 , 0 
       0       0       0       0    .015       0      20       0       0
Bank Sta=0,20
XS Rating Curve= 0 ,0
XS HTab Starting El and Incr=68,0.45, 50 
XS HTab Horizontal Distribution= 5 , 5 , 5 
Exp/Cntr=0,0

Type RM Length L Ch R = 1 ,.50762* ,20,20,20
Node Last Edited Time=Dec/19/2001 11:29:50
#Sta/Elev= 4 
       0    76.8       0    66.8      20    66.8      20    76.8
#Mann= 2 , 0 , 0 
       0       0       0       0    .015       0
Bank Sta=0,20
XS Rating Curve= 0 ,0
XS HTab Starting El and Incr=67.8,0.45, 50 
XS HTab Horizontal Distribution= 5 , 5 , 5 
Exp/Cntr=0,0

Type RM Length L Ch R = 1 ,.50384* ,20,20,20
Node Last Edited Time=Dec/19/2001 11:29:50
#Sta/Elev= 4 
       0    76.6       0    66.6      20    66.6      20    76.6
#Mann= 2 , 0 , 0 
       0       0       0       0    .015       0
Bank Sta=0,20
XS Rating Curve= 0 ,0
XS HTab Starting El and Incr=67.6,0.45, 50 
XS HTab Horizontal Distribution= 5 , 5 , 5 
Exp/Cntr=0,0

Type RM Length L Ch R = 1 ,.50006* ,20,20,20
Node Last Edited Time=Dec/19/2001 11:29:50
#Sta/Elev= 4 
       0    76.4       0    66.4      20    66.4      20    76.4
#Mann= 2 , 0 , 0 
       0       0       0       0    .015       0
Bank Sta=0,20
XS Rating Curve= 0 ,0
XS HTab Starting El and Incr=67.4,0.45, 50 
XS HTab Horizontal Distribution= 5 , 5 , 5 
Exp/Cntr=0,0

Type RM Length L Ch R = 1 ,.49628* ,20,20,20
Node Last Edited Time=Dec/19/2001 11:29:50
#Sta/Elev= 4 
       0    76.2       0    66.2      20    66.2      20    76.2
#Mann= 2 , 0 , 0 
       0       0       0       0    .015       0
Bank Sta=0,20
XS Rating Curve= 0 ,0
XS HTab Starting El and Incr=67.2,0.45, 50 
XS HTab Horizontal Distribution= 5 , 5 , 5 
Exp/Cntr=0,0

Type RM Length L Ch R = 1 ,0.4925  ,20,20,20
BEGIN DESCRIPTION:
Fiftenth Cross Section
END DESCRIPTION:
Node Last Edited Time=Dec/19/2001 11:29:50
#Sta/Elev= 4 
       0      76       0      66      20      66      20      76
#Mann= 3 , 0 , 0 
       0               0       0    .015       0      20               0
Bank Sta=0,20
XS Rating Curve= 0 ,0
XS HTab Starting El and Incr=67,0.45, 50 
XS HTab Horizontal Distribution= 5 , 5 , 5 
Exp/Cntr=0,0

Type RM Length L Ch R = 1 ,.4887*  ,20,20,20
Node Last Edited Time=Dec/19/2001 11:29:50
#Sta/Elev= 4 
       0    75.8       0    65.8      20    65.8      20    75.8
#Mann= 2 , 0 , 0 
       0       0       0       0    .015       0
Bank Sta=0,20
XS Rating Curve= 0 ,0
XS HTab Starting El and Incr=66.8,0.45, 50 
XS HTab Horizontal Distribution= 5 , 5 , 5 
Exp/Cntr=0,0

Type RM Length L Ch R = 1 ,.4849*  ,20,20,20
Node Last Edited Time=Dec/19/2001 11:29:50
#Sta/Elev= 4 
       0    75.6       0    65.6      20    65.6      20    75.6
#Mann= 2 , 0 , 0 
       0       0       0       0    .015       0
Bank Sta=0,20
XS Rating Curve= 0 ,0
XS HTab Starting El and Incr=66.6,0.45, 50 
XS HTab Horizontal Distribution= 5 , 5 , 5 
Exp/Cntr=0,0

Type RM Length L Ch R = 1 ,.4811*  ,20,20,20
Node Last Edited Time=Dec/19/2001 11:29:50
#Sta/Elev= 4 
       0    75.4       0    65.4      20    65.4      20    75.4
#Mann= 2 , 0 , 0 
       0       0       0       0    .015       0
Bank Sta=0,20
XS Rating Curve= 0 ,0
XS HTab Starting El and Incr=66.4,0.45, 50 
XS HTab Horizontal Distribution= 5 , 5 , 5 
Exp/Cntr=0,0

Type RM Length L Ch R = 1 ,.4773*  ,20,20,20
Node Last Edited Time=Dec/19/2001 11:29:50
#Sta/Elev= 4 
       0    75.2       0    65.2      20    65.2      20    75.2
#Mann= 2 , 0 , 0 
       0       0       0       0    .015       0
Bank Sta=0,20
XS Rating Curve= 0 ,0
XS HTab Starting El and Incr=66.2,0.45, 50 
XS HTab Horizontal Distribution= 5 , 5 , 5 
Exp/Cntr=0,0

Type RM Length L Ch R = 1 ,0.4735  ,20,20,20
BEGIN DESCRIPTION:
Fourtenth Cross Section
END DESCRIPTION:
Node Last Edited Time=Dec/19/2001 11:29:50
#Sta/Elev= 4 
       0      75       0      65      20      65      20      75
#Mann= 3 , 0 , 0 
       0       0       0       0    .015       0      20       0       0
Bank Sta=0,20
XS Rating Curve= 0 ,0
XS HTab Starting El and Incr=66,0.45, 50 
XS HTab Horizontal Distribution= 5 , 5 , 5 
Exp/Cntr=0,0

Type RM Length L Ch R = 1 ,.46972* ,20,20,20
Node Last Edited Time=Dec/19/2001 11:29:50
#Sta/Elev= 4 
       0  74.992       0  64.992      20  64.992      20  74.992
#Mann= 2 , 0 , 0 
       0       0       0       0    .015       0
Bank Sta=0,20
XS Rating Curve= 0 ,0
XS HTab Starting El and Incr=65.992,0.45, 50 
XS HTab Horizontal Distribution= 5 , 5 , 5 
Exp/Cntr=0,0

Type RM Length L Ch R = 1 ,.46594* ,20,20,20
Node Last Edited Time=Dec/19/2001 11:29:50
#Sta/Elev= 4 
       0  74.984       0  64.984      20  64.984      20  74.984
#Mann= 2 , 0 , 0 
       0       0       0       0    .015       0
Bank Sta=0,20
XS Rating Curve= 0 ,0
XS HTab Starting El and Incr=65.984,0.45, 50 
XS HTab Horizontal Distribution= 5 , 5 , 5 
Exp/Cntr=0,0

Type RM Length L Ch R = 1 ,.46216* ,20,20,20
Node Last Edited Time=Dec/19/2001 11:29:50
#Sta/Elev= 4 
       0  74.976       0  64.976      20  64.976      20  74.976
#Mann= 2 , 0 , 0 
       0       0       0       0    .015       0
Bank Sta=0,20
XS Rating Curve= 0 ,0
XS HTab Starting El and Incr=65.976,0.45, 50 
XS HTab Horizontal Distribution= 5 , 5 , 5 
Exp/Cntr=0,0

Type RM Length L Ch R = 1 ,.45838* ,20,20,20
Node Last Edited Time=Dec/19/2001 11:29:50
#Sta/Elev= 4 
       0  74.968       0  64.968      20  64.968      20  74.968
#Mann= 2 , 0 , 0 
       0       0       0       0    .015       0
Bank Sta=0,20
XS Rating Curve= 0 ,0
XS HTab Starting El and Incr=65.968,0.45, 50 
XS HTab Horizontal Distribution= 5 , 5 , 5 
Exp/Cntr=0,0

Type RM Length L Ch R = 1 ,0.4546  ,20,20,20
BEGIN DESCRIPTION:
Thirteenth Cross Section
END DESCRIPTION:
Node Last Edited Time=Dec/19/2001 11:29:50
#Sta/Elev= 4 
       0   74.96       0   64.96      20   64.96      20   74.96
#Mann= 3 , 0 , 0 
       0               0       0    .015       0      20               0
Bank Sta=0,20
XS Rating Curve= 0 ,0
XS HTab Starting El and Incr=65.96,0.45, 50 
XS HTab Horizontal Distribution= 5 , 5 , 5 
Exp/Cntr=0,0

Type RM Length L Ch R = 1 ,.45081* ,20,20,20
Node Last Edited Time=Dec/19/2001 11:29:50
#Sta/Elev= 4 
       0  74.952       0  64.952      20  64.952      20  74.952
#Mann= 2 , 0 , 0 
       0       0       0       0    .015       0
Bank Sta=0,20
XS Rating Curve= 0 ,0
XS HTab Starting El and Incr=65.952,0.45, 50 
XS HTab Horizontal Distribution= 5 , 5 , 5 
Exp/Cntr=0,0

Type RM Length L Ch R = 1 ,.44702* ,20,20,20
Node Last Edited Time=Dec/19/2001 11:29:50
#Sta/Elev= 4 
       0  74.944       0  64.944      20  64.944      20  74.944
#Mann= 2 , 0 , 0 
       0       0       0       0    .015       0
Bank Sta=0,20
XS Rating Curve= 0 ,0
XS HTab Starting El and Incr=65.944,0.45, 50 
XS HTab Horizontal Distribution= 5 , 5 , 5 
Exp/Cntr=0,0

Type RM Length L Ch R = 1 ,.44323* ,20,20,20
Node Last Edited Time=Dec/19/2001 11:29:50
#Sta/Elev= 4 
       0  74.936       0  64.936      20  64.936      20  74.936
#Mann= 2 , 0 , 0 
       0       0       0       0    .015       0
Bank Sta=0,20
XS Rating Curve= 0 ,0
XS HTab Starting El and Incr=65.936,0.45, 50 
XS HTab Horizontal Distribution= 5 , 5 , 5 
Exp/Cntr=0,0

Type RM Length L Ch R = 1 ,.43944* ,20,20,20
Node Last Edited Time=Dec/19/2001 11:29:50
#Sta/Elev= 4 
       0  74.928       0  64.928      20  64.928      20  74.928
#Mann= 2 , 0 , 0 
       0       0       0       0    .015       0
Bank Sta=0,20
XS Rating Curve= 0 ,0
XS HTab Starting El and Incr=65.928,0.45, 50 
XS HTab Horizontal Distribution= 5 , 5 , 5 
Exp/Cntr=0,0

Type RM Length L Ch R = 1 ,.43565* ,20,20,20
Node Last Edited Time=Dec/19/2001 11:29:50
#Sta/Elev= 4 
       0   74.92       0   64.92      20   64.92      20   74.92
#Mann= 2 , 0 , 0 
       0       0       0       0    .015       0
Bank Sta=0,20
XS Rating Curve= 0 ,0
XS HTab Starting El and Incr=65.92,0.45, 50 
XS HTab Horizontal Distribution= 5 , 5 , 5 
Exp/Cntr=0,0

Type RM Length L Ch R = 1 ,.43186* ,20,20,20
Node Last Edited Time=Dec/19/2001 11:29:50
#Sta/Elev= 4 
       0  74.912       0  64.912      20  64.912      20  74.912
#Mann= 2 , 0 , 0 
       0       0       0       0    .015       0
Bank Sta=0,20
XS Rating Curve= 0 ,0
XS HTab Starting El and Incr=65.912,0.45, 50 
XS HTab Horizontal Distribution= 5 , 5 , 5 
Exp/Cntr=0,0

Type RM Length L Ch R = 1 ,.42807* ,20,20,20
Node Last Edited Time=Dec/19/2001 11:29:50
#Sta/Elev= 4 
       0  74.904       0  64.904      20  64.904      20  74.904
#Mann= 2 , 0 , 0 
       0       0       0       0    .015       0
Bank Sta=0,20
XS Rating Curve= 0 ,0
XS HTab Starting El and Incr=65.904,0.45, 50 
XS HTab Horizontal Distribution= 5 , 5 , 5 
Exp/Cntr=0,0

Type RM Length L Ch R = 1 ,.42428* ,20,20,20
Node Last Edited Time=Dec/19/2001 11:29:50
#Sta/Elev= 4 
       0  74.896       0  64.896      20  64.896      20  74.896
#Mann= 2 , 0 , 0 
       0       0       0       0    .015       0
Bank Sta=0,20
XS Rating Curve= 0 ,0
XS HTab Starting El and Incr=65.896,0.45, 50 
XS HTab Horizontal Distribution= 5 , 5 , 5 
Exp/Cntr=0,0

Type RM Length L Ch R = 1 ,.42049* ,20,20,20
Node Last Edited Time=Dec/19/2001 11:29:50
#Sta/Elev= 4 
       0  74.888       0  64.888      20  64.888      20  74.888
#Mann= 2 , 0 , 0 
       0       0       0       0    .015       0
Bank Sta=0,20
XS Rating Curve= 0 ,0
XS HTab Starting El and Incr=65.888,0.45, 50 
XS HTab Horizontal Distribution= 5 , 5 , 5 
Exp/Cntr=0,0

Type RM Length L Ch R = 1 ,0.4167  ,20,20,20
BEGIN DESCRIPTION:
Twelth Cross Section
END DESCRIPTION:
Node Last Edited Time=Dec/19/2001 11:29:50
#Sta/Elev= 4 
       0   74.88       0   64.88      20   64.88      20   74.88
#Mann= 3 , 0 , 0 
       0       0       0       0    .015       0      20       0       0
Bank Sta=0,20
XS Rating Curve= 0 ,0
XS HTab Starting El and Incr=65.88,0.45, 50 
XS HTab Horizontal Distribution= 5 , 5 , 5 
Exp/Cntr=0,0

Type RM Length L Ch R = 1 ,.41291* ,20,20,20
Node Last Edited Time=Dec/19/2001 11:29:50
#Sta/Elev= 4 
       0  74.872       0  64.872      20  64.872      20  74.872
#Mann= 2 , 0 , 0 
       0       0       0       0    .015       0
Bank Sta=0,20
XS Rating Curve= 0 ,0
XS HTab Starting El and Incr=65.872,0.45, 50 
XS HTab Horizontal Distribution= 5 , 5 , 5 
Exp/Cntr=0,0

Type RM Length L Ch R = 1 ,.40912* ,20,20,20
Node Last Edited Time=Dec/19/2001 11:29:50
#Sta/Elev= 4 
       0  74.864       0  64.864      20  64.864      20  74.864
#Mann= 2 , 0 , 0 
       0       0       0       0    .015       0
Bank Sta=0,20
XS Rating Curve= 0 ,0
XS HTab Starting El and Incr=65.864,0.45, 50 
XS HTab Horizontal Distribution= 5 , 5 , 5 
Exp/Cntr=0,0

Type RM Length L Ch R = 1 ,.40533* ,20,20,20
Node Last Edited Time=Dec/19/2001 11:29:50
#Sta/Elev= 4 
       0  74.856       0  64.856      20  64.856      20  74.856
#Mann= 2 , 0 , 0 
       0       0       0       0    .015       0
Bank Sta=0,20
XS Rating Curve= 0 ,0
XS HTab Starting El and Incr=65.856,0.45, 50 
XS HTab Horizontal Distribution= 5 , 5 , 5 
Exp/Cntr=0,0

Type RM Length L Ch R = 1 ,.40154* ,20,20,20
Node Last Edited Time=Dec/19/2001 11:29:50
#Sta/Elev= 4 
       0  74.848       0  64.848      20  64.848      20  74.848
#Mann= 2 , 0 , 0 
       0       0       0       0    .015       0
Bank Sta=0,20
XS Rating Curve= 0 ,0
XS HTab Starting El and Incr=65.848,0.45, 50 
XS HTab Horizontal Distribution= 5 , 5 , 5 
Exp/Cntr=0,0

Type RM Length L Ch R = 1 ,.39775* ,20,20,20
Node Last Edited Time=Dec/19/2001 11:29:50
#Sta/Elev= 4 
       0   74.84       0   64.84      20   64.84      20   74.84
#Mann= 2 , 0 , 0 
       0       0       0       0    .015       0
Bank Sta=0,20
XS Rating Curve= 0 ,0
XS HTab Starting El and Incr=65.84,0.45, 50 
XS HTab Horizontal Distribution= 5 , 5 , 5 
Exp/Cntr=0,0

Type RM Length L Ch R = 1 ,.39396* ,20,20,20
Node Last Edited Time=Dec/19/2001 11:29:50
#Sta/Elev= 4 
       0  74.832       0  64.832      20  64.832      20  74.832
#Mann= 2 , 0 , 0 
       0       0       0       0    .015       0
Bank Sta=0,20
XS Rating Curve= 0 ,0
XS HTab Starting El and Incr=65.832,0.45, 50 
XS HTab Horizontal Distribution= 5 , 5 , 5 
Exp/Cntr=0,0

Type RM Length L Ch R = 1 ,.39017* ,20,20,20
Node Last Edited Time=Dec/19/2001 11:29:50
#Sta/Elev= 4 
       0  74.824       0  64.824      20  64.824      20  74.824
#Mann= 2 , 0 , 0 
       0       0       0       0    .015       0
Bank Sta=0,20
XS Rating Curve= 0 ,0
XS HTab Starting El and Incr=65.824,0.45, 50 
XS HTab Horizontal Distribution= 5 , 5 , 5 
Exp/Cntr=0,0

Type RM Length L Ch R = 1 ,.38638* ,20,20,20
Node Last Edited Time=Dec/19/2001 11:29:50
#Sta/Elev= 4 
       0  74.816       0  64.816      20  64.816      20  74.816
#Mann= 2 , 0 , 0 
       0       0       0       0    .015       0
Bank Sta=0,20
XS Rating Curve= 0 ,0
XS HTab Starting El and Incr=65.816,0.45, 50 
XS HTab Horizontal Distribution= 5 , 5 , 5 
Exp/Cntr=0,0

Type RM Length L Ch R = 1 ,.38259* ,20,20,20
Node Last Edited Time=Dec/19/2001 11:29:50
#Sta/Elev= 4 
       0  74.808       0  64.808      20  64.808      20  74.808
#Mann= 2 , 0 , 0 
       0       0       0       0    .015       0
Bank Sta=0,20
XS Rating Curve= 0 ,0
XS HTab Starting El and Incr=65.808,0.45, 50 
XS HTab Horizontal Distribution= 5 , 5 , 5 
Exp/Cntr=0,0

Type RM Length L Ch R = 1 ,0.3788  ,20,20,20
BEGIN DESCRIPTION:
Eleventh Cross Section
END DESCRIPTION:
Node Last Edited Time=Dec/19/2001 11:29:50
#Sta/Elev= 4 
       0    74.8       0    64.8      20    64.8      20    74.8
#Mann= 3 , 0 , 0 
       0               0       0    .015       0      20               0
Bank Sta=0,20
XS Rating Curve= 0 ,0
XS HTab Starting El and Incr=65.8,0.45, 50 
XS HTab Horizontal Distribution= 5 , 5 , 5 
Exp/Cntr=0,0

Type RM Length L Ch R = 1 ,.37501* ,20,20,20
Node Last Edited Time=Dec/19/2001 11:29:50
#Sta/Elev= 4 
       0  74.792       0  64.792      20  64.792      20  74.792
#Mann= 2 , 0 , 0 
       0       0       0       0    .015       0
Bank Sta=0,20
XS Rating Curve= 0 ,0
XS HTab Starting El and Incr=65.792,0.45, 50 
XS HTab Horizontal Distribution= 5 , 5 , 5 
Exp/Cntr=0,0

Type RM Length L Ch R = 1 ,.37122* ,20,20,20
Node Last Edited Time=Dec/19/2001 11:29:50
#Sta/Elev= 4 
       0  74.784       0  64.784      20  64.784      20  74.784
#Mann= 2 , 0 , 0 
       0       0       0       0    .015       0
Bank Sta=0,20
XS Rating Curve= 0 ,0
XS HTab Starting El and Incr=65.784,0.45, 50 
XS HTab Horizontal Distribution= 5 , 5 , 5 
Exp/Cntr=0,0

Type RM Length L Ch R = 1 ,.36743* ,20,20,20
Node Last Edited Time=Dec/19/2001 11:29:50
#Sta/Elev= 4 
       0  74.776       0  64.776      20  64.776      20  74.776
#Mann= 2 , 0 , 0 
       0       0       0       0    .015       0
Bank Sta=0,20
XS Rating Curve= 0 ,0
XS HTab Starting El and Incr=65.776,0.45, 50 
XS HTab Horizontal Distribution= 5 , 5 , 5 
Exp/Cntr=0,0

Type RM Length L Ch R = 1 ,.36364* ,20,20,20
Node Last Edited Time=Dec/19/2001 11:29:50
#Sta/Elev= 4 
       0  74.768       0  64.768      20  64.768      20  74.768
#Mann= 2 , 0 , 0 
       0       0       0       0    .015       0
Bank Sta=0,20
XS Rating Curve= 0 ,0
XS HTab Starting El and Incr=65.768,0.45, 50 
XS HTab Horizontal Distribution= 5 , 5 , 5 
Exp/Cntr=0,0

Type RM Length L Ch R = 1 ,.35985* ,20,20,20
Node Last Edited Time=Dec/19/2001 11:29:50
#Sta/Elev= 4 
       0   74.76       0   64.76      20   64.76      20   74.76
#Mann= 2 , 0 , 0 
       0       0       0       0    .015       0
Bank Sta=0,20
XS Rating Curve= 0 ,0
XS HTab Starting El and Incr=65.76,0.45, 50 
XS HTab Horizontal Distribution= 5 , 5 , 5 
Exp/Cntr=0,0

Type RM Length L Ch R = 1 ,.35606* ,20,20,20
Node Last Edited Time=Dec/19/2001 11:29:50
#Sta/Elev= 4 
       0  74.752       0  64.752      20  64.752      20  74.752
#Mann= 2 , 0 , 0 
       0       0       0       0    .015       0
Bank Sta=0,20
XS Rating Curve= 0 ,0
XS HTab Starting El and Incr=65.752,0.45, 50 
XS HTab Horizontal Distribution= 5 , 5 , 5 
Exp/Cntr=0,0

Type RM Length L Ch R = 1 ,.35227* ,20,20,20
Node Last Edited Time=Dec/19/2001 11:29:50
#Sta/Elev= 4 
       0  74.744       0  64.744      20  64.744      20  74.744
#Mann= 2 , 0 , 0 
       0       0       0       0    .015       0
Bank Sta=0,20
XS Rating Curve= 0 ,0
XS HTab Starting El and Incr=65.744,0.45, 50 
XS HTab Horizontal Distribution= 5 , 5 , 5 
Exp/Cntr=0,0

Type RM Length L Ch R = 1 ,.34848* ,20,20,20
Node Last Edited Time=Dec/19/2001 11:29:50
#Sta/Elev= 4 
       0  74.736       0  64.736      20  64.736      20  74.736
#Mann= 2 , 0 , 0 
       0       0       0       0    .015       0
Bank Sta=0,20
XS Rating Curve= 0 ,0
XS HTab Starting El and Incr=65.736,0.45, 50 
XS HTab Horizontal Distribution= 5 , 5 , 5 
Exp/Cntr=0,0

Type RM Length L Ch R = 1 ,.34469* ,20,20,20
Node Last Edited Time=Dec/19/2001 11:29:50
#Sta/Elev= 4 
       0  74.728       0  64.728      20  64.728      20  74.728
#Mann= 2 , 0 , 0 
       0       0       0       0    .015       0
Bank Sta=0,20
XS Rating Curve= 0 ,0
XS HTab Starting El and Incr=65.728,0.45, 50 
XS HTab Horizontal Distribution= 5 , 5 , 5 
Exp/Cntr=0,0

Type RM Length L Ch R = 1 ,0.3409  ,20,20,20
BEGIN DESCRIPTION:
Tenth Cross Section
END DESCRIPTION:
Node Last Edited Time=Dec/19/2001 11:29:50
#Sta/Elev= 4 
       0   74.72       0   64.72      20   64.72      20   74.72
#Mann= 3 , 0 , 0 
       0       0       0       0    .015       0      20       0       0
Bank Sta=0,20
XS Rating Curve= 0 ,0
XS HTab Starting El and Incr=65.72,0.45, 50 
XS HTab Horizontal Distribution= 5 , 5 , 5 
Exp/Cntr=0,0

Type RM Length L Ch R = 1 ,.33711* ,20,20,20
Node Last Edited Time=Dec/19/2001 11:29:50
#Sta/Elev= 4 
       0   74.72       0   64.72      20   64.72      20   74.72
#Mann= 2 , 0 , 0 
       0       0       0       0    .015       0
Bank Sta=0,20
XS Rating Curve= 0 ,0
XS HTab Starting El and Incr=65.72,0.45, 50 
XS HTab Horizontal Distribution= 5 , 5 , 5 
Exp/Cntr=0,0

Type RM Length L Ch R = 1 ,.33332* ,20,20,20
Node Last Edited Time=Dec/19/2001 11:29:50
#Sta/Elev= 4 
       0   74.72       0   64.72      20   64.72      20   74.72
#Mann= 2 , 0 , 0 
       0       0       0       0    .015       0
Bank Sta=0,20
XS Rating Curve= 0 ,0
XS HTab Starting El and Incr=65.72,0.45, 50 
XS HTab Horizontal Distribution= 5 , 5 , 5 
Exp/Cntr=0,0

Type RM Length L Ch R = 1 ,.32953* ,20,20,20
Node Last Edited Time=Dec/19/2001 11:29:50
#Sta/Elev= 4 
       0   74.72       0   64.72      20   64.72      20   74.72
#Mann= 2 , 0 , 0 
       0       0       0       0    .015       0
Bank Sta=0,20
XS Rating Curve= 0 ,0
XS HTab Starting El and Incr=65.72,0.45, 50 
XS HTab Horizontal Distribution= 5 , 5 , 5 
Exp/Cntr=0,0

Type RM Length L Ch R = 1 ,.32574* ,20,20,20
Node Last Edited Time=Dec/19/2001 11:29:50
#Sta/Elev= 4 
       0   74.72       0   64.72      20   64.72      20   74.72
#Mann= 2 , 0 , 0 
       0       0       0       0    .015       0
Bank Sta=0,20
XS Rating Curve= 0 ,0
XS HTab Starting El and Incr=65.72,0.45, 50 
XS HTab Horizontal Distribution= 5 , 5 , 5 
Exp/Cntr=0,0

Type RM Length L Ch R = 1 ,.32195* ,20,20,20
Node Last Edited Time=Dec/19/2001 11:29:50
#Sta/Elev= 4 
       0   74.72       0   64.72      20   64.72      20   74.72
#Mann= 2 , 0 , 0 
       0       0       0       0    .015       0
Bank Sta=0,20
XS Rating Curve= 0 ,0
XS HTab Starting El and Incr=65.72,0.45, 50 
XS HTab Horizontal Distribution= 5 , 5 , 5 
Exp/Cntr=0,0

Type RM Length L Ch R = 1 ,.31816* ,20,20,20
Node Last Edited Time=Dec/19/2001 11:29:50
#Sta/Elev= 4 
       0   74.72       0   64.72      20   64.72      20   74.72
#Mann= 2 , 0 , 0 
       0       0       0       0    .015       0
Bank Sta=0,20
XS Rating Curve= 0 ,0
XS HTab Starting El and Incr=65.72,0.45, 50 
XS HTab Horizontal Distribution= 5 , 5 , 5 
Exp/Cntr=0,0

Type RM Length L Ch R = 1 ,.31437* ,20,20,20
Node Last Edited Time=Dec/19/2001 11:29:50
#Sta/Elev= 4 
       0   74.72       0   64.72      20   64.72      20   74.72
#Mann= 2 , 0 , 0 
       0       0       0       0    .015       0
Bank Sta=0,20
XS Rating Curve= 0 ,0
XS HTab Starting El and Incr=65.72,0.45, 50 
XS HTab Horizontal Distribution= 5 , 5 , 5 
Exp/Cntr=0,0

Type RM Length L Ch R = 1 ,.31058* ,20,20,20
Node Last Edited Time=Dec/19/2001 11:29:50
#Sta/Elev= 4 
       0   74.72       0   64.72      20   64.72      20   74.72
#Mann= 2 , 0 , 0 
       0       0       0       0    .015       0
Bank Sta=0,20
XS Rating Curve= 0 ,0
XS HTab Starting El and Incr=65.72,0.45, 50 
XS HTab Horizontal Distribution= 5 , 5 , 5 
Exp/Cntr=0,0

Type RM Length L Ch R = 1 ,.30679* ,20,20,20
Node Last Edited Time=Dec/19/2001 11:29:50
#Sta/Elev= 4 
       0   74.72       0   64.72      20   64.72      20   74.72
#Mann= 2 , 0 , 0 
       0       0       0       0    .015       0
Bank Sta=0,20
XS Rating Curve= 0 ,0
XS HTab Starting El and Incr=65.72,0.45, 50 
XS HTab Horizontal Distribution= 5 , 5 , 5 
Exp/Cntr=0,0

Type RM Length L Ch R = 1 ,0.3030  ,20,20,20
BEGIN DESCRIPTION:
Ninth Cross Section
END DESCRIPTION:
Node Last Edited Time=Dec/19/2001 11:29:50
#Sta/Elev= 4 
       0   74.72       0   64.72      20   64.72      20   74.72
#Mann= 3 , 0 , 0 
       0               0       0    .015       0      20               0
Bank Sta=0,20
XS Rating Curve= 0 ,0
XS HTab Starting El and Incr=65.72,0.45, 50 
XS HTab Horizontal Distribution= 5 , 5 , 5 
Exp/Cntr=0,0

Type RM Length L Ch R = 1 ,.29921* ,20,20,20
Node Last Edited Time=Dec/19/2001 11:29:50
#Sta/Elev= 4 
       0  74.704       0  64.704      20  64.704      20  74.704
#Mann= 2 , 0 , 0 
       0       0       0       0    .015       0
Bank Sta=0,20
XS Rating Curve= 0 ,0
XS HTab Starting El and Incr=65.704,0.45, 50 
XS HTab Horizontal Distribution= 5 , 5 , 5 
Exp/Cntr=0,0

Type RM Length L Ch R = 1 ,.29542* ,20,20,20
Node Last Edited Time=Dec/19/2001 11:29:50
#Sta/Elev= 4 
       0  74.688       0  64.688      20  64.688      20  74.688
#Mann= 2 , 0 , 0 
       0       0       0       0    .015       0
Bank Sta=0,20
XS Rating Curve= 0 ,0
XS HTab Starting El and Incr=65.688,0.45, 50 
XS HTab Horizontal Distribution= 5 , 5 , 5 
Exp/Cntr=0,0

Type RM Length L Ch R = 1 ,.29163* ,20,20,20
Node Last Edited Time=Dec/19/2001 11:29:50
#Sta/Elev= 4 
       0  74.672       0  64.672      20  64.672      20  74.672
#Mann= 2 , 0 , 0 
       0       0       0       0    .015       0
Bank Sta=0,20
XS Rating Curve= 0 ,0
XS HTab Starting El and Incr=65.672,0.45, 50 
XS HTab Horizontal Distribution= 5 , 5 , 5 
Exp/Cntr=0,0

Type RM Length L Ch R = 1 ,.28784* ,20,20,20
Node Last Edited Time=Dec/19/2001 11:29:50
#Sta/Elev= 4 
       0  74.656       0  64.656      20  64.656      20  74.656
#Mann= 2 , 0 , 0 
       0       0       0       0    .015       0
Bank Sta=0,20
XS Rating Curve= 0 ,0
XS HTab Starting El and Incr=65.656,0.45, 50 
XS HTab Horizontal Distribution= 5 , 5 , 5 
Exp/Cntr=0,0

Type RM Length L Ch R = 1 ,.28405* ,20,20,20
Node Last Edited Time=Dec/19/2001 11:29:50
#Sta/Elev= 4 
       0   74.64       0   64.64      20   64.64      20   74.64
#Mann= 2 , 0 , 0 
       0       0       0       0    .015       0
Bank Sta=0,20
XS Rating Curve= 0 ,0
XS HTab Starting El and Incr=65.64,0.45, 50 
XS HTab Horizontal Distribution= 5 , 5 , 5 
Exp/Cntr=0,0

Type RM Length L Ch R = 1 ,.28026* ,20,20,20
Node Last Edited Time=Dec/19/2001 11:29:50
#Sta/Elev= 4 
       0  74.624       0  64.624      20  64.624      20  74.624
#Mann= 2 , 0 , 0 
       0       0       0       0    .015       0
Bank Sta=0,20
XS Rating Curve= 0 ,0
XS HTab Starting El and Incr=65.624,0.45, 50 
XS HTab Horizontal Distribution= 5 , 5 , 5 
Exp/Cntr=0,0

Type RM Length L Ch R = 1 ,.27647* ,20,20,20
Node Last Edited Time=Dec/19/2001 11:29:50