Plan Title=Unsteady with Mixed Flow Regime
Program Version=5.00
Short Identifier=Mixed Flow                                                      
Simulation Date=01JAN2000,0100,04JAN2000,2400
Geom File=g01
Flow File=u01
Subcritical Flow
K Sum by GR= 0 
Std Step Tol= 0.01 
Critical Tol= 0.01 
Num of Std Step Trials= 20 
Max Error Tol= 0.3 
Flow Tol Ratio= 0.001 
Split Flow NTrial= 30 
Split Flow Tol= 0.02 
Split Flow Ratio= 0.02 
Log Output Level= 0 
Friction Slope Method= 1 
Unsteady Friction Slope Method= 2 
Unsteady Bridges Friction Slope Method= 1 
Calc Critical at every XS
Parabolic Critical Depth
Global Vel Dist= 0 , 0 , 0 
Global Log Level= 0 
CheckData=True
Encroach Param=-1 ,0,0, 0 
Computation Interval=30SEC
Output Interval=1HOUR
Instantaneous Interval=1HOUR
Mapping Interval=1HOUR
Run HTab= 1 
Run UNet= 1 
Run Sediment= 0 
Run PostProcess= 1 
Run WQNet= 0 
Run RASMapper= 0 
UNET Theta= 1 
UNET Theta Warmup= 1 
UNET ZTol= 0.02 
UNET ZSATol= 0.1 
UNET QTol=
UNET MxIter= 20 
UNET Max Iter WO Improvement= 0 
UNET MaxInSteps= 1 
UNET DtIC= 0 
UNET DtMin= 0 
UNET MaxCRTS= 20 
UNET WFStab= 2 
UNET SFStab= 1 
UNET WFX= 1 
UNET SFX= 1 
UNET DSS MLevel= 4 
UNET Pardiso=0
UNET DZMax Abort= 100 
UNET Use Existing IB Tables=-1 
UNET Froude Reduction=True
UNET Froude Limit= 1.6 
UNET Froude Power= 7 
UNET Time Slicing=0,0, 5 
UNET Junction Losses=0
UNET D1 Cores= 0 
UNET D2 Coriolis=0
UNET D2 Cores= 0 
UNET D2 Theta= 1 
UNET D2 Theta Warmup= 1 
UNET D2 Z Tol= 0.01 
UNET D2 Max Iterations= 20 
UNET D2 Equation= 0 
UNET D2 TotalICTime=
UNET D2 RampUpFraction=0.5
UNET D2 TimeSlices= 1 
UNET D2 Eddy Viscosity=
UNET D2 BCVolumeCheck=0
UNET D2 Latitude=
UNET D1D2 MaxIter= 0 
UNET D1D2 ZTol=0.01
UNET D1D2 QTol=0.1
UNET D1D2 MinQTol=1
DSS File=dss
Write IC File= 0 
Write IC File at Fixed DateTime=0
IC Time=,,
Write IC File Reoccurance=
Write IC File at Sim End=0
Echo Input=False
Echo Parameters=False
Echo Output=False
Write Detailed= 0 
HDF Write Warmup=0
HDF Write Time Slices=0
HDF Flush=0
HDF Compression= 1 
HDF Chunk Size= 1 
HDF Spatial Parts= 1 
HDF Use Max Rows=0
HDF Fixed Rows= 1 
Stage Flow Hydrograph=Mixed Reach     ,Mixed Reach     ,0.5682
Stage Flow Hydrograph=Mixed Reach     ,Mixed Reach     ,.56442*
Stage Flow Hydrograph=Mixed Reach     ,Mixed Reach     ,.56064*
Stage Flow Hydrograph=Mixed Reach     ,Mixed Reach     ,.55686*
Stage Flow Hydrograph=Mixed Reach     ,Mixed Reach     ,.55308*
Stage Flow Hydrograph=Mixed Reach     ,Mixed Reach     ,0.5493
Stage Flow Hydrograph=Mixed Reach     ,Mixed Reach     ,.5455*
Stage Flow Hydrograph=Mixed Reach     ,Mixed Reach     ,.5417*
Stage Flow Hydrograph=Mixed Reach     ,Mixed Reach     ,.5379*
Stage Flow Hydrograph=Mixed Reach     ,Mixed Reach     ,.5341*
Stage Flow Hydrograph=Mixed Reach     ,Mixed Reach     ,0.5303
Stage Flow Hydrograph=Mixed Reach     ,Mixed Reach     ,.52652*
Stage Flow Hydrograph=Mixed Reach     ,Mixed Reach     ,.52274*
Stage Flow Hydrograph=Mixed Reach     ,Mixed Reach     ,.51896*
Stage Flow Hydrograph=Mixed Reach     ,Mixed Reach     ,.51518*
Stage Flow Hydrograph=Mixed Reach     ,Mixed Reach     ,0.5114
Stage Flow Hydrograph=Mixed Reach     ,Mixed Reach     ,.50762*
Stage Flow Hydrograph=Mixed Reach     ,Mixed Reach     ,.50384*
Stage Flow Hydrograph=Mixed Reach     ,Mixed Reach     ,.50006*
Stage Flow Hydrograph=Mixed Reach     ,Mixed Reach     ,.49628*
Stage Flow Hydrograph=Mixed Reach     ,Mixed Reach     ,0.4925
Stage Flow Hydrograph=Mixed Reach     ,Mixed Reach     ,.4887*
Stage Flow Hydrograph=Mixed Reach     ,Mixed Reach     ,.4849*
Stage Flow Hydrograph=Mixed Reach     ,Mixed Reach     ,.4811*
Stage Flow Hydrograph=Mixed Reach     ,Mixed Reach     ,.4773*
Stage Flow Hydrograph=Mixed Reach     ,Mixed Reach     ,0.4735
Stage Flow Hydrograph=Mixed Reach     ,Mixed Reach     ,.46972*
Stage Flow Hydrograph=Mixed Reach     ,Mixed Reach     ,.46594*
Stage Flow Hydrograph=Mixed Reach     ,Mixed Reach     ,.46216*
Stage Flow Hydrograph=Mixed Reach     ,Mixed Reach     ,.45838*
Stage Flow Hydrograph=Mixed Reach     ,Mixed Reach     ,0.4546
Stage Flow Hydrograph=Mixed Reach     ,Mixed Reach     ,.45081*
Stage Flow Hydrograph=Mixed Reach     ,Mixed Reach     ,.44702*
Stage Flow Hydrograph=Mixed Reach     ,Mixed Reach     ,.44323*
Stage Flow Hydrograph=Mixed Reach     ,Mixed Reach     ,.43944*
Stage Flow Hydrograph=Mixed Reach     ,Mixed Reach     ,.43565*
Stage Flow Hydrograph=Mixed Reach     ,Mixed Reach     ,.43186*
Stage Flow Hydrograph=Mixed Reach     ,Mixed Reach     ,.42807*
Stage Flow Hydrograph=Mixed Reach     ,Mixed Reach     ,.42428*
Stage Flow Hydrograph=Mixed Reach     ,Mixed Reach     ,.42049*
Stage Flow Hydrograph=Mixed Reach     ,Mixed Reach     ,0.4167
Stage Flow Hydrograph=Mixed Reach     ,Mixed Reach     ,.41291*
Stage Flow Hydrograph=Mixed Reach     ,Mixed Reach     ,.40912*
Stage Flow Hydrograph=Mixed Reach     ,Mixed Reach     ,.40533*
Stage Flow Hydrograph=Mixed Reach     ,Mixed Reach     ,.40154*
Stage Flow Hydrograph=Mixed Reach     ,Mixed Reach     ,.39775*
Stage Flow Hydrograph=Mixed Reach     ,Mixed Reach     ,.39396*
Stage Flow Hydrograph=Mixed Reach     ,Mixed Reach     ,.39017*
Stage Flow Hydrograph=Mixed Reach     ,Mixed Reach     ,.38638*
Stage Flow Hydrograph=Mixed Reach     ,Mixed Reach     ,.38259*
Stage Flow Hydrograph=Mixed Reach     ,Mixed Reach     ,0.3788
Stage Flow Hydrograph=Mixed Reach     ,Mixed Reach     ,.37501*
Stage Flow Hydrograph=Mixed Reach     ,Mixed Reach     ,.37122*
Stage Flow Hydrograph=Mixed Reach     ,Mixed Reach     ,.36743*
Stage Flow Hydrograph=Mixed Reach     ,Mixed Reach     ,.36364*
Stage Flow Hydrograph=Mixed Reach     ,Mixed Reach     ,.35985*
Stage Flow Hydrograph=Mixed Reach     ,Mixed Reach     ,.35606*
Stage Flow Hydrograph=Mixed Reach     ,Mixed Reach     ,.35227*
Stage Flow Hydrograph=Mixed Reach     ,Mixed Reach     ,.34848*
Stage Flow Hydrograph=Mixed Reach     ,Mixed Reach     ,.34469*
Stage Flow Hydrograph=Mixed Reach     ,Mixed Reach     ,0.3409
Stage Flow Hydrograph=Mixed Reach     ,Mixed Reach     ,.33711*
Stage Flow Hydrograph=Mixed Reach     ,Mixed Reach     ,.33332*
Stage Flow Hydrograph=Mixed Reach     ,Mixed Reach     ,.32953*
Stage Flow Hydrograph=Mixed Reach     ,Mixed Reach     ,.32574*
Stage Flow Hydrograph=Mixed Reach     ,Mixed Reach     ,.32195*
Stage Flow Hydrograph=Mixed Reach     ,Mixed Reach     ,.31816*
Stage Flow Hydrograph=Mixed Reach     ,Mixed Reach     ,.31437*
Stage Flow Hydrograph=Mixed Reach     ,Mixed Reach     ,.31058*
Stage Flow Hydrograph=Mixed Reach     ,Mixed Reach     ,.30679*
Stage Flow Hydrograph=Mixed Reach     ,Mixed Reach     ,0.3030
Stage Flow Hydrograph=Mixed Reach     ,Mixed Reach     ,.29921*
Stage Flow Hydrograph=Mixed Reach     ,Mixed Reach     ,.29542*
Stage Flow Hydrograph=Mixed Reach     ,Mixed Reach     ,.29163*
Stage Flow Hydrograph=Mixed Reach     ,Mixed Reach     ,.28784*
Stage Flow Hydrograph=Mixed Reach     ,Mixed Reach     ,.28405*
Stage Flow Hydrograph=Mixed Reach     ,Mixed Reach     ,.28026*
Stage Flow Hydrograph=Mixed Reach     ,Mixed Reach     ,.27647*
Stage Flow Hydrograph=Mixed Reach     ,Mixed Reach     ,.27268*
Stage Flow Hydrograph=Mixed Reach     ,Mixed Reach     ,.26889*
Stage Flow Hydrograph=Mixed Reach     ,Mixed Reach     ,0.2651
Stage Flow Hydrograph=Mixed Reach     ,Mixed Reach     ,.26132*
Stage Flow Hydrograph=Mixed Reach     ,Mixed Reach     ,.25754*
Stage Flow Hydrograph=Mixed Reach     ,Mixed Reach     ,.25376*
Stage Flow Hydrograph=Mixed Reach     ,Mixed Reach     ,.24998*
Stage Flow Hydrograph=Mixed Reach     ,Mixed Reach     ,.2462*
Stage Flow Hydrograph=Mixed Reach     ,Mixed Reach     ,.24242*
Stage Flow Hydrograph=Mixed Reach     ,Mixed Reach     ,.23864*
Stage Flow Hydrograph=Mixed Reach     ,Mixed Reach     ,.23486*
Stage Flow Hydrograph=Mixed Reach     ,Mixed Reach     ,.23108*
Stage Flow Hydrograph=Mixed Reach     ,Mixed Reach     ,0.2273
Stage Flow Hydrograph=Mixed Reach     ,Mixed Reach     ,.22291*
Stage Flow Hydrograph=Mixed Reach     ,Mixed Reach     ,.21852*
Stage Flow Hydrograph=Mixed Reach     ,Mixed Reach     ,.21413*
Stage Flow Hydrograph=Mixed Reach     ,Mixed Reach     ,.20974*
Stage Flow Hydrograph=Mixed Reach     ,Mixed Reach     ,.20535*
Stage Flow Hydrograph=Mixed Reach     ,Mixed Reach     ,.20096*
Stage Flow Hydrograph=Mixed Reach     ,Mixed Reach     ,.19657*
Stage Flow Hydrograph=Mixed Reach     ,Mixed Reach     ,.19218*
Stage Flow Hydrograph=Mixed Reach     ,Mixed Reach     ,.18779*
Stage Flow Hydrograph=Mixed Reach     ,Mixed Reach     ,0.1834
Stage Flow Hydrograph=Mixed Reach     ,Mixed Reach     ,.18021*
Stage Flow Hydrograph=Mixed Reach     ,Mixed Reach     ,.17702*
Stage Flow Hydrograph=Mixed Reach     ,Mixed Reach     ,.17383*
Stage Flow Hydrograph=Mixed Reach     ,Mixed Reach     ,.17064*
Stage Flow Hydrograph=Mixed Reach     ,Mixed Reach     ,.16745*
Stage Flow Hydrograph=Mixed Reach     ,Mixed Reach     ,.16426*
Stage Flow Hydrograph=Mixed Reach     ,Mixed Reach     ,.16107*
Stage Flow Hydrograph=Mixed Reach     ,Mixed Reach     ,.15788*
Stage Flow Hydrograph=Mixed Reach     ,Mixed Reach     ,.15469*
Stage Flow Hydrograph=Mixed Reach     ,Mixed Reach     ,0.1515
Stage Flow Hydrograph=Mixed Reach     ,Mixed Reach     ,.14771*
Stage Flow Hydrograph=Mixed Reach     ,Mixed Reach     ,.14392*
Stage Flow Hydrograph=Mixed Reach     ,Mixed Reach     ,.14013*
Stage Flow Hydrograph=Mixed Reach     ,Mixed Reach     ,.13634*
Stage Flow Hydrograph=Mixed Reach     ,Mixed Reach     ,.13255*
Stage Flow Hydrograph=Mixed Reach     ,Mixed Reach     ,.12876*
Stage Flow Hydrograph=Mixed Reach     ,Mixed Reach     ,.12497*
Stage Flow Hydrograph=Mixed Reach     ,Mixed Reach     ,.12118*
Stage Flow Hydrograph=Mixed Reach     ,Mixed Reach     ,.11739*
Stage Flow Hydrograph=Mixed Reach     ,Mixed Reach     ,0.1136
Stage Flow Hydrograph=Mixed Reach     ,Mixed Reach     ,.109816*
Stage Flow Hydrograph=Mixed Reach     ,Mixed Reach     ,.106032*
Stage Flow Hydrograph=Mixed Reach     ,Mixed Reach     ,.102248*
Stage Flow Hydrograph=Mixed Reach     ,Mixed Reach     ,.098464*
Stage Flow Hydrograph=Mixed Reach     ,Mixed Reach     ,.09468*
Stage Flow Hydrograph=Mixed Reach     ,Mixed Reach     ,.090896*
Stage Flow Hydrograph=Mixed Reach     ,Mixed Reach     ,.087112*
Stage Flow Hydrograph=Mixed Reach     ,Mixed Reach     ,.083328*
Stage Flow Hydrograph=Mixed Reach     ,Mixed Reach     ,.079544*
Stage Flow Hydrograph=Mixed Reach     ,Mixed Reach     ,0.07576
Stage Flow Hydrograph=Mixed Reach     ,Mixed Reach     ,.071972*
Stage Flow Hydrograph=Mixed Reach     ,Mixed Reach     ,.068184*
Stage Flow Hydrograph=Mixed Reach     ,Mixed Reach     ,.064396*
Stage Flow Hydrograph=Mixed Reach     ,Mixed Reach     ,.060608*
Stage Flow Hydrograph=Mixed Reach     ,Mixed Reach     ,.05682*
Stage Flow Hydrograph=Mixed Reach     ,Mixed Reach     ,.053032*
Stage Flow Hydrograph=Mixed Reach     ,Mixed Reach     ,.049244*
Stage Flow Hydrograph=Mixed Reach     ,Mixed Reach     ,.045456*
Stage Flow Hydrograph=Mixed Reach     ,Mixed Reach     ,.041668*
Stage Flow Hydrograph=Mixed Reach     ,Mixed Reach     ,0.03788
Stage Flow Hydrograph=Mixed Reach     ,Mixed Reach     ,.034092*
Stage Flow Hydrograph=Mixed Reach     ,Mixed Reach     ,.030304*
Stage Flow Hydrograph=Mixed Reach     ,Mixed Reach     ,.026516*
Stage Flow Hydrograph=Mixed Reach     ,Mixed Reach     ,.022728*
Stage Flow Hydrograph=Mixed Reach     ,Mixed Reach     ,.01894*
Stage Flow Hydrograph=Mixed Reach     ,Mixed Reach     ,.015152*
Stage Flow Hydrograph=Mixed Reach     ,Mixed Reach     ,.011364*
Stage Flow Hydrograph=Mixed Reach     ,Mixed Reach     ,.007576*
Stage Flow Hydrograph=Mixed Reach     ,Mixed Reach     ,.003788*
Stage Flow Hydrograph=Mixed Reach     ,Mixed Reach     ,0.00000
Calibration Method= 0 
Calibration Iterations= 20 
Calibration Max Change=0.05
Calibration Tolerance=0.2
Calibration Maximum=1.5
Calibration Minimum=0.5
Calibration Optimization Method= 1 
Calibration Window=,,,
WQ AD Non Conservative
WQ ULTIMATE=-1
WQ Max Comp Step=1HOUR
WQ Output Interval=15MIN
WQ Output Selected Increments= 0 
WQ Output face flow=0
WQ Output face velocity=0
WQ Output face area=0
WQ Output face dispersion=0
WQ Output cell volume=0
WQ Output cell surface area=0
WQ Output cell continuity=0
WQ Output cumulative cell continuity=0
WQ Output face conc=0
WQ Output face dconc_dx=0
WQ Output face courant=0
WQ Output face peclet=0
WQ Output face adv mass=0
WQ Output face disp mass=0
WQ Output cell mass=0
WQ Output cell source sink temp=0
WQ Output nsm pathways=0
WQ Output nsm derived pathways=0
WQ Output MaxMinRange=-1
WQ Daily Max Min Mean=-1
WQ Daily Range=0
WQ Daily Time=0
WQ Create Restart=0
WQ Fixed Restart=0
WQ Restart Simtime=
WQ Restart Date=
WQ Restart Hour=
WQ System Summary=0
WQ Write To DSS=0
WQ Use Fixed Temperature=0
WQ Fixed Temperature=
Sorting and Armoring Iterations= 10 
XS Update Threshold= 0.02 
Bed Roughness Predictor= 0 
Hydraulics Update Threshold= 0.02 
Energy Slope Method= 1 
Volume Change Method= 1 
Sediment Retention Method= 0 
XS Weighting Method= 0 
Number of US Weighted Cross Sections= 1 
Number of DS Weighted Cross Sections= 1 
Upstream XS Weight=0
Main XS Weight=1
Downstream XS Weight=0
Number of DS XS's Weighted with US Boundary= 1 
Upstream Boundary Weight= 1 
Weight of XSs Associated with US Boundary= 0 
Number of US XS's Weighted with DS Boundary= 1 
Downstream Boundary Weight= 0.5 
Weight of XSs Associated with DS Boundary= 0.5 
Sediment Output Level= 4 
Mass or Volume Output= 0 
Output Increment Type= 1 
Profile and TS Output Increment= 10 
XS Output Flag= 0 
XS Output Increment= 10 
Write Gradation File= 0 
Read Gradation Hotstart= 0 
Gradation File Name=
Write HDF5 File= 0 
Write DSS Sediment File= 0 
SV Curve= 0 
Specific Gage Flag= 0 
