Flow Title=Unsteady Flow 01
Version=Version 3.1 Beta  Mar 2002
Use Restart= 0 
Initial Flow Loc=Mixed Reach     ,Mixed Reach     ,0.5682  ,500
Boundary Location=Mixed Reach     ,Mixed Reach     ,0.5682  ,        ,                ,                
Interval=1HOUR
Flow Hydrograph= 100 
     500     500     500     500     500     500     500     500     500     500
     500     500     500  520.83  541.67   562.5  583.33  604.17     625  645.83
  666.67   687.5  708.33  729.17     750  770.83  791.67   812.5  833.33  854.17
     875  895.83  916.67   937.5  958.33  979.17    1000    1000    1000   991.8
  983.61  975.41  967.21  959.02  950.82  942.62  934.43  926.23  918.03  909.84
  901.64  893.44  885.25  877.05  868.85  860.66  852.46  844.26  836.07  827.87
  819.67  811.48  803.28  795.08  786.89  778.69  770.49   762.3   754.1   745.9
   737.7  729.51  721.31  713.11  704.92  696.72  688.52  680.33  672.13  663.93
  655.74  647.54  639.34  631.15  622.95  614.75  606.56  598.36  590.16  581.97
  573.77  565.57  557.38  549.18  540.98  532.79  524.59  516.39   508.2     500
DSS Path=
Use DSS=False
Use Fixed Start Time=False
Fixed Start Date/Time=,
Is Critical Boundary=False
Critical Boundary Flow=
Boundary Location=Mixed Reach     ,Mixed Reach     ,0.00000 ,        ,                ,                
Interval=1HOUR
Stage Hydrograph= 100 
    59.3   59.67   60.04   60.41   60.78   61.15   61.52   61.89   62.26   62.63
      63   63.37   63.74   64.11   64.48   64.85   65.22   65.59   65.96   66.34
   66.71   67.08   67.45   67.82   68.19   68.56   68.93    69.3   69.67   70.04
   70.41   70.78   71.15   71.52   71.89   72.26   72.63      73   72.78   72.56
   72.34   72.12    71.9   71.67   71.45   71.23   71.01   70.79   70.57   70.35
   70.13   69.91   69.69   69.46   69.24   69.02    68.8   68.58   68.36   68.14
   67.92    67.7   67.48   67.25   67.03   66.81   66.59   66.37   66.15   65.93
   65.71   65.49   65.27   65.05   64.82    64.6   64.38   64.16   63.94   63.72
    63.5   63.28   63.06   62.84   62.61   62.39   62.17   61.95   61.73   61.51
   61.29   61.07   60.85   60.63    60.4   60.18   59.96   59.74   59.52    59.3
DSS Path=
Use DSS=False
Use Fixed Start Time=False
Fixed Start Date/Time=,
Is Critical Boundary=False
Critical Boundary Flow=
