Flow Title=With Lat Inflow
Program Version=3.12
Use Restart= 0 
Initial Flow Loc=RedFox          ,Upper           ,100     ,10000
Initial Flow Loc=RedFox          ,Upper           ,50      ,10100
Boundary Location=RedFox          ,Upper           ,100     ,        ,                ,                
Interval=1HOUR
Flow Hydrograph= 100 
   10000   10600   11200   11800   12400   13000   13600   14200   14800   15000
   14900 14662.5   14425 14187.5   13950 13712.5   13475 13237.5   1300012857.14
12714.2912571.4312428.5712285.7112142.86   1200011972.9711945.9511918.9211891.89
11864.8711837.8411810.8111783.7811756.7611729.73 11702.711675.6811648.6511621.62
11594.5911567.5711540.5411513.5111486.4911459.4611432.4311405.4111378.3811351.35
11324.32 11297.311270.2711243.2411216.2211189.1911162.1611135.1311108.1111081.08
11054.0511027.03   1100010972.9710945.9510918.9210891.8910864.8710837.8410810.81
10783.7810756.7610729.73 10702.710675.6810648.6510621.6210594.5910567.5710540.54
10513.5110486.4910459.4610432.4310405.4110378.3810351.3510324.32 10297.310270.27
10243.2410216.2210189.1910162.1610135.1310108.1110081.0810054.0510027.03   10000
DSS Path=
Use DSS=False
CWMS InputPosition= 0 
Use Fixed Start Time=False
Fixed Start Date/Time=,
Is Critical Boundary=False
Critical Boundary Flow=
Boundary Location=RedFox          ,Upper           ,80      ,70      ,                ,                
Interval=1HOUR
Uniform Lateral Inflow Hydrograph= 100 
     100     100     100     100     100  206.25   312.5  418.75     525  631.25
   737.5  843.75     950  966.67  983.33    1000  983.33  966.67     950     935
     920     905     890     875     860     845     830     815     800     785
     770     755     740     725     710     695     680     665     650     635
     620     605     590     575     560     545     530     515     500  492.16
  484.31  476.47  468.63  460.78  452.94   445.1  437.25  429.41  421.57  413.73
  405.88  398.04   390.2  382.35  374.51  366.67  358.82  350.98  343.14  335.29
  327.45  319.61  311.76  303.92  296.08  288.24  280.39  272.55  264.71  256.86
  249.02  241.18  233.33  225.49  217.65   209.8  201.96  194.12  186.27  178.43
  170.59  162.75   154.9  147.06  139.22  131.37  123.53  115.69  107.84     100
DSS Path=
Use DSS=False
CWMS InputPosition= 0 
Use Fixed Start Time=False
Fixed Start Date/Time=,
Is Critical Boundary=False
Critical Boundary Flow=
Boundary Location=RedFox          ,Upper           ,50      ,        ,                ,                
Interval=1HOUR
Lateral Inflow Hydrograph= 100 
     100     100     100     100     100     450     800    1150    1500    1850
    2200    2550    2900 2933.33 2966.67    3000 2966.67 2933.33    2900 2838.71
 2777.42 2716.13 2654.84 2593.55 2532.26 2470.97 2409.68 2348.39  2287.1 2225.81
 2164.52 2103.23 2041.94 1980.65 1919.36 1858.07 1796.77 1735.48 1674.19  1612.9
 1551.61 1490.32 1429.03 1367.74 1306.45 1245.16 1183.87 1122.58 1061.29    1000
     982     964     946     928     910     892     874     856     838     820
     802     784     766     748     730     712     694     676     658     640
     622     604     586     568     550     532     514     496     478     460
     442     424     406     388     370     352     334     316     298     280
     262     244     226     208     190     172     154     136     118     100
DSS Path=
Use DSS=False
CWMS InputPosition= 0 
Use Fixed Start Time=False
Fixed Start Date/Time=,
Is Critical Boundary=False
Critical Boundary Flow=
Boundary Location=RedFox          ,Upper           ,0       ,        ,                ,                
Friction Slope=0.0003
