Proj Title=Simple test of unsteady flow
Current Plan=p02
Default Exp/Contr=0.3,0.1
English Units
Geom File=g02
Unsteady File=u03
Unsteady File=u02
Plan File=p03
Plan File=p02
Y Axis Title=Elevation
X Axis Title(PF)=Main Channel Distance
X Axis Title(XS)=Station
DSS Caption Additional Text=Jensen
BEGIN DESCRIPTION:

END DESCRIPTION:
DSS Start Date=02JAN2000
DSS Start Time=0100
DSS End Date=04JAN2000
DSS End Time=0100
DSS File=dss
DSS Export Filename=
DSS Export Rating Curves= 0 
DSS Export Rating Curve Sorted= 0 
DSS Export Volume Flow Curves= 0 
DXF Filename=
DXF OffsetX= 0 
DXF OffsetY= 0 
DXF ScaleX= 1 
DXF ScaleY= 10 
GIS Export Profiles= 0 
