Flow Title=Flood Hydrograph
Program Version=4.20
Use Restart= 0 
Initial Flow Loc=Bald Eagle      ,Loc Hav         ,138154.4,1000
Boundary Location=Bald Eagle      ,Loc Hav         ,138154.4,        ,                ,                ,                
Interval=1HOUR
Flow Hydrograph= 150 
    1000    1040    1080    1120    1160    1200    1960    2720    3480    4240
    5000    6500    8000    9500   11000   12500   14000   15500   17000   18500
   20000   22000   24000   26000   28000   30000   34000   38000   42000   46000
   50000   54000   58000   62000   66000   70000   73000   76000   79000   82000
   85000   87200   89400   91600   93800   96000   96800   97600   98400   99200
  100000   99600   99200   98800   98400   9800095583.3493166.66   9075088333.34
85916.66   8350081083.3478666.66   7625073833.3471416.66   6900066583.3464166.67
   6175059333.3356916.67   5450052083.3349666.67   4725044833.3342416.67   40000
39166.6738333.33   3750036666.6735833.33   3500034166.6733333.33   3250031666.67
30833.33   3000029166.6728333.33   2750026666.6725833.33   2500024166.6723333.33
   2250021666.6720833.33   2000019583.3319166.67   1875018333.3317916.67   17500
17083.3316666.67   1625015833.3315416.67   1500014583.3314166.67   1375013333.33
12916.67   1250012083.3311666.67   1125010833.3310416.67   10000 9590.91 9181.82
 8772.73 8363.64 7954.55 7545.46 7136.36 6727.27 6318.18 5909.09    5500 5090.91
 4681.82 4272.73 3863.64 3454.55 3045.46 2636.36 2227.27 1818.18 1409.09    1000
DSS Path=
Use DSS=False
CWMS InputPosition= 0 
Use Fixed Start Time=False
Fixed Start Date/Time=,
Is Critical Boundary=False
Critical Boundary Flow=
Boundary Location=Bald Eagle      ,Loc Hav         ,81500   ,        ,                ,                ,                
Gate Name=Gate #1     
Gate DSS Path=
Gate Use DSS=False
Gate Time Interval=1HOUR
Gate Use Fixed Start Time=False
Gate Fixed Start Date/Time=,
Gate Openings= 150 
       6    6.23    6.45    6.68     6.9    7.13    7.35    7.58     7.8    8.03
    8.25    8.48     8.7    8.93    9.15    9.38     9.6    9.83   10.05   10.28
    10.5   10.73   10.95   11.18    11.4   11.63   11.85   12.08    12.3   12.53
   12.75   12.98    13.2   13.43   13.65   13.88    14.1   14.33   14.55   14.78
      15   14.83   14.66   14.49   14.32   14.15   13.98   13.81   13.64   13.47
   13.31   13.14   12.97    12.8   12.63   12.46   12.29   12.12   11.95   11.78
   11.61   11.44   11.27    11.1   10.93   10.76   10.59   10.42   10.25   10.08
    9.92    9.75    9.58    9.41    9.24    9.07     8.9    8.73    8.56    8.39
    8.22    8.05    7.88    7.71    7.54    7.37     7.2    7.03    6.86    6.69
    6.53    6.36    6.19    6.02    5.85    5.68    5.51    5.34    5.17       5
       5       5       5       5       5       5       5       5       5       5
       5       5       5       5       5       5       5       5       5       5
       5       5       5       5       5       5       5       5       5       5
       5       5       5       5       5       5       5       5       5       5
       5       5       5       5       5       5       5       5       5       5
Gate Name=Gate #2     
Gate DSS Path=
Gate Use DSS=False
Gate Time Interval=1HOUR
Gate Use Fixed Start Time=False
Gate Fixed Start Date/Time=,
Gate Openings= 150 
       0       0       0       0       0       0       0       0       0       0
       0       0       0       0       0       0       0       0       0       0
       0       0       0       0       0       0       0       0       0       0
       0       0       0       0       0       0       0       0       0       0
       0       0       1       2       4       8      16      32      60      60
      60      60      60      60      60      60      60      60      60      60
      60      60      60      60      60      60      60      60      60      60
      60      60      60      60      60      60      60      60      60      60
      60      60      60      60      60      60      60      60      60      60
      60      60      60      60      60      60      60      60      60      60
      60      60      60      60      60      60      60      60      60      60
      60      60      60      60      60      60      60      60      60      60
      60      60      60      60      60      60      60      60      60      60
      60      60      60      60      60      60      60      60      60      60
      60      60      60      60      60      60      60      60      60      60
Boundary Location=Bald Eagle      ,Loc Hav         ,659.942 ,        ,                ,                ,                
Friction Slope=0.0006
