Geom Title=L40_outflow
Program Version=5.00
Viewing Rectangle= 5096758.84722071 , 5239183.41520565 , 1798502.22904449 , 1580158.47902027 

River Reach=fake            ,fake1           
Reach XY= 6811 
5149766.262439271796361.604044255149799.213816931796343.45906742
5149832.164866511796325.314090595149865.116244181796307.16911376
5149898.067621851796289.024136925149931.018671431796270.87916009
 5149963.97004911796252.734183265149996.921426771796234.58920642
5150029.872476351796216.444229595150062.823854011796198.29925276
5150095.775231681796180.154275925150128.726281261796162.00929909
5150161.677658931796143.86432226 5150194.62903661796125.71934542
5150227.580414271796107.574368595150260.531463851796089.42939176
5150293.482841511796071.284414925150326.434219181796053.13943809
5150359.385268761796034.994461255150392.336646431796016.84948442
 5150425.28802411795998.704507595150458.239073681795980.55953075
5150491.190451351795962.414553925150524.141829011795944.26957709
 5150557.09287861795926.124600255150590.044256261795907.97962342
5150622.995633931795889.834646595150655.946683511795871.68966975
5150688.898061181795853.544692925150721.849438851795835.39971609
5150754.800488431795817.254739255150787.751866091795799.10976242
5150820.703243761795780.964785595150853.654293341795762.81980876
5150886.605671011795744.674831925150919.557048681795726.52985509
5150952.508098261795708.384878265150985.459475931795690.23990142
5151018.410853591795672.094924595151051.362231261795653.94994776
5151084.313280841795635.804970925151117.264658511795617.65999409
5151150.216036181795599.515017265151183.167085761795581.37004042
5151216.118463431795563.225063595151249.069841091795545.08008676
5151282.020890681795526.935109925151314.972268341795508.79013309
5151347.923646011795490.64515626 5151380.87469561795472.50017942
5151413.826073261795454.355202595151446.777450931795436.21022575
5151479.728500521795418.065248925151512.679878181795399.92027209
5151545.631255841795381.775295255151578.582305431795363.63031842
 5151611.53368311795345.485341595151644.485060761795327.34036475
5151677.436110351795309.195387925151710.387488021795291.05041109
5151743.338865681795272.905762345151776.289915261795254.76078551
5151809.241292931795236.61580867 5151842.19267061795218.47083184
5151875.144048271795200.325855015151908.095097851795182.18087817
5151941.046475511795164.035901345151973.997853181795145.89092451
5152006.948902761795127.745947675152039.900280431795109.60097084
 5152072.85165811795091.455994015152105.802707681795073.31101717
5152138.754085351795055.166040345152171.705463011795037.02106351
 5152204.65651261795018.876086675152237.607890261795000.73110984
5152270.559267931794982.586133015152303.510317511794964.44115617
5152336.461695181794946.296179345152369.41307285 1794928.1512025
5152402.364122431794910.00622567 5152435.31550011794891.86124884
5152468.26687776  1794873.7162725152501.217927341794855.57129517
5152534.169305011794837.426318345152567.12068268 1794819.2813415
5152600.071732261794801.136364675152633.023109931794782.99138784
 5152665.9744876  1794764.8464115152698.925865261794746.70143417
5152731.876914841794728.556457345152764.828292511794710.41148051
5152797.779670181794692.266503675152830.730719761794674.12152684
5152863.682097431794655.97655001 5152896.63347511794637.83157317
5152929.584524681794619.686596345152962.535902341794601.54161951
5152995.487280011794583.396642675153028.438329591794565.25166584
5153061.389707261794547.106689015153094.341084931794528.96171217
5153127.292134521794510.816735345153160.243512181794492.67175851
5153193.194889841794474.526781675153226.145939431794456.38180484
 5153259.09731711794438.236828015153292.048694761794420.09185117
5153324.999744351794401.946874345153357.95112202 1794383.8018975
5153390.902499681794365.656920675153423.853549261794347.51194384
5153456.80492693  1794329.366967 5153489.75630461794311.22199017
5153522.707682261794293.077013345153555.65873185 1794274.9320365
5153588.610109521794256.787059675153621.561487181794238.64208284
5153654.51253676  1794220.4971065153687.463914431794202.35212917
 5153720.41529211794184.207152345153753.36634168 1794166.0621755
5153786.317719351794147.917198675153819.269097021794129.77222184
 5153852.22014661794111.627245015153885.171524261794093.48226817
5153918.122901931794075.337291345153951.073951511794057.19231451
5153984.025329181794039.047337675154016.976706851794020.90236084
5154049.927756431794002.75738401 5154082.87913411793984.61240717
5154115.830511761793966.467430345154148.781561341793948.32245351
5154181.732939011793930.177476675154214.684316681793912.03249984
5154247.635366261793893.887523015154280.586743931793875.74254617
 5154313.53812161793857.597569345154346.48949926 1793839.4525925
5154379.440548841793821.307615675154412.391926511793803.16263884
5154445.34330418  1793785.0176625154478.294353761793766.87268517
5154511.245731431793748.72770834 5154544.1971091 1793730.5827315
5154577.148158681793712.437754675154610.099536341793694.29277784
5154643.05091401  1793676.1478015154676.001963591793658.00282417
5154708.953341261793639.857847345154741.90471893 1793621.7128705
5154774.855768511793603.567893675154807.807146181793585.42291684
5154840.758523841793567.277940015154873.709573431793549.13296317
5154906.660951091793530.987986345154939.612328761793512.84300951
5154972.563378351793494.698032675155005.514756011793476.55305584
5155038.466133681793458.408079015155071.417183271793440.26310217
5155104.368560931793422.118125345155137.319938591793403.97314851
5155170.271316261793385.828171675155203.222365851793367.68319484
5155236.173743521793349.538218015155269.125121181793331.39324117
5155302.076170761793313.248264345155335.027548431793295.10328751
5155367.978926091793276.958310675155400.929975681793258.81333384
5155433.88135335  1793240.6683575155466.832731021793222.52338017
 5155499.78378061793204.378403345155532.73515826 1793186.2334265
5155565.686535931793168.088449675155598.637585511793149.94347284
5155631.58896318  1793131.7984965155664.540340851793113.65351917
5155697.491390431793095.50887042 5155730.44276811793077.36389359
5155763.394145761793059.218916765155796.345195351793041.07393992
5155829.296573011793022.928963095155862.247950681793004.78398626
5155895.199000261792986.639009425155928.150377931792968.49403259
 5155961.10175561792950.349055765155994.053133261792932.20407892
5156027.004182851792914.059102095156059.955560511792895.91412526
5156092.906938181792877.769148425156125.857987761792859.62417159
5156158.809365431792841.47919476 5156191.76074311792823.33421792
5156224.711792681792805.189241095156257.663170351792787.04426426
5156290.614548011792768.899287425156323.565597591792750.75431059
5156356.516975261792732.609333755156389.468352931792714.46435692
5156422.419402511792696.319380095156455.370780181792678.17440325
5156488.322157841792660.029426425156521.273207431792641.88444959
5156554.224585091792623.739472755156587.175962761792605.59449592
5156620.127012341792587.449519095156653.078390011792569.30454225
5156686.029767681792551.159565425156718.980817271792533.01458859
5156751.932194931792514.869611765156784.883572591792496.72463492
5156817.834950261792478.579658095156850.785999851792460.43468126
5156883.737377511792442.289704425156916.688755181792424.14472759
5156949.639804771792405.999750765156982.591182431792387.85477392
5157015.542560091792369.709797095157048.493609681792351.56482026
5157081.444987351792333.419843425157114.396365011792315.27486659
 5157147.34741461792297.129889765157180.298792271792278.98491292
5157213.250169931792260.839936095157246.201219511792242.69495926
5157279.152597181792224.549982425157312.103974851792206.40500559
5157345.055024431792188.26002875 5157378.00640211792170.11505192
5157410.957779771792151.970075095157443.908829351792133.82509825
5157476.860207011792115.680121425157509.811584681792097.53514459
5157542.762634261792079.390167755157575.714011931792061.24519092
 5157608.66538961792043.100214095157641.616767261792024.95523725
5157674.567816851792006.810260425157707.519194511791988.66528359
5157740.470572181791970.520306755157773.421621761791952.37532992
5157806.372999431791934.23035309 5157839.32437711791916.08537626
5157872.275426681791897.940399425157905.226804351791879.79542259
5157938.178182011791861.650445765157971.129231591791843.50546892
5158004.080609261791825.360492095158037.031986931791807.21551526
5158069.983036511791789.070538425158102.934414181791770.92556159
5158135.885791851791752.780584765158168.836841431791734.63560792
5158201.788219091791716.490631095158234.739596761791698.34565426
5158267.690646341791680.200677425158300.642024011791662.05570059
5158333.593401681791643.910723755158366.544451261791625.76574692
5158399.495828931791607.620770095158432.447206591791589.47579325
5158465.398584261791571.330816425158498.349633841791553.18583959
5158531.301011511791535.040862755158564.252389181791516.89588592
5158597.203438761791498.750909095158630.154816431791480.60593225
5158663.106194091791462.460955425158696.057243681791444.31597859
5158729.008621341791426.171001755158761.959999011791408.02602492
 5158794.91104861791389.881048095158827.862426271791371.73607126
5158860.813803931791353.591094425158893.764853511791335.44611759
5158926.716231181791317.301140765158959.667608841791299.15616392
5158992.618658431791281.01118709 5159025.57003611791262.86621026
5159058.521413771791244.721233425159091.472463351791226.57625659
5159124.423841011791208.431279765159157.375218681791190.28630292
5159190.326268261791172.141326095159223.277645931791153.99634926
 5159256.22902361791135.851372425159289.180401271791117.70639559
5159322.131450851791099.561418765159355.082828511791081.41644192
5159388.034206181791063.271465095159420.985255761791045.12648825
5159453.936633431791026.98151142 5159486.88801111791008.83653459
5159519.839060681790990.691557755159552.790438351790972.54658092
5159585.741816011790954.40160409 5159618.69286561790936.25695534
5159651.64424326 1790918.11197855159684.595620931790899.96700167
5159717.546670511790881.822024845159750.498048181790863.67704801
5159783.449425851790845.532071175159816.400475431790827.38709434
 5159849.35185311790809.242117515159882.303230761790791.09714067
5159915.254280341790772.952163845159948.205658011790754.80718701
5159981.157035681790736.662210175160014.108085261790718.51723334
5160047.059462931790700.372256515160080.010840591790682.22727967
5160112.962218261790664.082302845160145.913267841790645.93732601
5160178.864645511790627.792349175160211.816023181790609.64737234
5160244.767072761790591.502395515160277.718450431790573.35741867
5160310.669828091790555.212441845160343.62087768  1790537.067465
5160376.572255341790518.922488175160409.523633011790500.77751134
 5160442.4746826 1790482.63253455160475.426060261790464.48755767
5160508.377437931790446.342580845160541.32848752  1790428.197604
5160574.279865181790410.052627175160607.231242841790391.90765034
5160640.18229243 1790373.7626735 5160673.13367011790355.61769667
5160706.085047761790337.472719845160739.036097351790319.32774301
5160771.987475021790301.182766175160804.938852681790283.03778934
5160837.889902261790264.892812515160870.841279931790246.74783567
 5160903.79265761790228.602858845160936.744035261790210.45788201
5160969.695084851790192.312905175161002.646462521790174.16792834
5161035.597840181790156.022951515161068.548889761790137.87797467
5161101.500267431790119.73299784 5161134.45164511790101.58802101
5161167.402694681790083.443044175161200.354072351790065.29806734
5161233.305450011790047.15309051 5161266.25649961790029.00811367
5161299.207877261790010.863136845161332.15925493   1789992.71816
5161365.110304511789974.573183175161398.061682181789956.42820634
5161431.01305985 1789938.28322955161463.964109431789920.13825267
 5161496.91548711789901.993275845161529.86686476  1789883.848299
5161562.817914341789865.703322175161595.769292011789847.55834534
5161628.72066968 1789829.41336855161661.671719261789811.26839167
5161694.623096931789793.12341484 5161727.5744746  1789774.978438
5161760.525852261789756.833461175161793.476901841789738.68848434
5161826.428279511789720.543507515161859.379657181789702.39853067
5161892.330706761789684.253553845161925.282084431789666.10857701
 5161958.23346211789647.963600175161991.184511681789629.81862334
5162024.135889341789611.673646515162057.087267011789593.52866967
5162090.038316591789575.383692845162122.989694261789557.23871601
5162155.941071931789539.093739175162188.892121521789520.94876234
5162221.843499181789502.803785515162254.794876841789484.65880867
5162287.745926431789466.513831845162320.69730409  1789448.368855
5162353.648681761789430.223878175162386.599731351789412.07890134
5162419.55110902 1789393.93392455162452.502486681789375.78894767
5162485.453536261789357.643970845162518.40491393  1789339.498994
 5162551.35629161789321.354017175162584.307669261789303.20904034
5162617.25871885 1789285.06406355162650.210096521789266.91908667
5162683.161474181789248.774109845162716.11252376  1789230.629133
5162749.063901431789212.48415617 5162782.01527911789194.33917934
5162814.966328681789176.194202515162847.917706351789158.04922567
5162880.869084021789139.90424884 5162913.82013361789121.75927201
5162946.771511261789103.614295175162979.722888931789085.46931834
5163012.673938511789067.324341515163045.625316181789049.17936467
5163078.576693851789031.034387845163111.527743431789012.88941101
 5163144.47912111788994.744434175163177.430498761788976.59945734
5163210.381548351788958.454480515163243.332926011788940.30950367
5163276.284303681788922.164526845163309.235353261788904.01955001
5163342.186730931788885.87457317 5163375.13810861788867.72959634
5163408.08948626 1788849.58461955163441.040535841788831.43964267
5163473.991913511788813.294665845163506.94329118  1788795.149689
5163539.894340761788777.004712175163572.845718431788758.86006342
 5163605.79709611788740.715086595163638.748145681788722.57010975
5163671.699523341788704.425132925163704.650901011788686.28015609
5163737.601950591788668.135179265163770.553328261788649.99020242
5163803.504705931788631.845225595163836.455755511788613.70024876
5163869.407133181788595.555271925163902.358510841788577.41029509
5163935.309560431788559.265318265163968.260938091788541.12034142
5164001.212315761788522.975364595164034.163365351788504.83038776
5164067.114743011788486.685410925164100.066120681788468.54043409
5164133.017170271788450.395457265164165.968547931788432.25048042
5164198.919925591788414.105503595164231.871303261788395.96052676
5164264.822352851788377.815549925164297.773730511788359.67057309
5164330.725108181788341.525596255164363.676157771788323.38061942
5164396.627535431788305.235642595164429.578913091788287.09066575
5164462.529962681788268.945688925164495.481340351788250.80071209
5164528.432718021788232.65573525 5164561.38376761788214.51075842
5164594.335145261788196.365781595164627.286522931788178.22080475
5164660.237572511788160.075827925164693.188950181788141.93085109
5164726.140327851788123.785874265164759.091377431788105.64089742
 5164792.04275511788087.495920595164824.994132761788069.35094376
5164857.945182351788051.205966925164890.896560011788033.06099009
5164923.847937681788014.916013265164956.799315351787996.77103642
5164989.750364931787978.62605959 5165022.70174261787960.48108276
5165055.653120261787942.336105925165088.604169851787924.19112909
5165121.555547511787906.046152265165154.506925181787887.90117542
5165187.457974761787869.756198595165220.409352431787851.61122176
 5165253.36073011787833.466244925165286.311779681787815.32126809
5165319.263157351787797.176291255165352.214535011787779.03131442
5165385.165584591787760.886337595165418.116962261787742.74136075
5165451.068339931787724.596383925165484.019389511787706.45140709
5165516.970767181787688.306430255165549.922144851787670.16145342
5165582.873194431787652.016476595165615.824572091787633.87149975
5165648.775949761787615.726522925165681.726999341787597.58154609
5165714.678377011787579.436569255165747.629754681787561.29159242
5165780.581132341787543.146615595165813.532181931787525.00163876
5165846.483559591787506.856661925165879.434937261787488.71168509
5165912.385986841787470.566708265165945.337364511787452.42173142
5165978.288742181787434.276754595166011.239791771787416.13177776
5166044.191169431787397.986800925166077.142547091787379.84182409
5166110.093596681787361.696847265166143.044974351787343.55187042
5166175.996352011787325.40689359 5166208.94740161787307.26191676
5166241.898779271787289.116939925166274.850156931787270.97196309
5166307.801206511787252.826986255166340.752584181787234.68200942
5166373.703961851787216.537032595166406.655011431787198.39205575
 5166439.60638911787180.247078925166472.557766771787162.10210209
5166505.508816351787143.957125255166538.460194011787125.81214842
5166571.411571681787107.667171595166604.362949351787089.52219475
5166637.313998931787071.37721792 5166670.26537661787053.23224109
5166703.216754271787035.087264255166736.167803851787016.94228742
5166769.119181511786998.797310595166802.070559181786980.65233376
5166835.021608761786962.507356925166867.972986431786944.36238009
 5166900.92436411786926.217403265166933.875413681786908.07242642
5166966.826791351786889.927449595166999.778169011786871.78247276
5167032.729218591786853.637495925167065.680596261786835.49251909
5167098.631973931786817.347542265167131.583023511786799.20256542
5167164.534401181786781.057588595167197.485778851786762.91261176
5167230.436828431786744.767634925167263.388206091786726.62265809
5167296.339583761786708.477681265167329.290633341786690.33270442
5167362.242011011786672.187727595167395.193388681786654.04275075
5167428.144766351786635.897773925167461.095815931786617.75279709
5167494.047193591786599.607820255167526.99857126 1786581.4631715
5167559.949620841786563.318194675167592.900998511786545.17321784
5167625.85237618  1786527.0282415167658.803425761786508.88326417
5167691.754803431786490.738287345167724.706181091786472.59331051
5167757.657230681786454.448333675167790.608608341786436.30335684
5167823.559986011786418.15838001 5167856.51103561786400.01340317
5167889.462413261786381.868426345167922.413790931786363.72344951
5167955.364840521786345.578472675167988.316218181786327.43349584
5168021.267595841786309.288519015168054.218645431786291.14354217
 5168087.17002311786272.998565345168120.121400771786254.85358851
5168153.072450351786236.708611675168186.023828011786218.56363484
5168218.975205681786200.418658015168251.926583341786182.27368117
5168284.877632931786164.12870434 5168317.8290106 1786145.9837275
5168350.780388271786127.838750675168383.731437851786109.69377384
5168416.68281551  1786091.5487975168449.634193181786073.40382017
5168482.585242761786055.258843345168515.53662043 1786037.1138665
 5168548.48799811786018.968889675168581.439047681786000.82391284
5168614.39042535  1785982.6789365168647.341803011785964.53395917
 5168680.29285261785946.388982345168713.244230261785928.24400551
5168746.195607931785910.099028675168779.146657511785891.95405184
5168812.098035181785873.809075015168845.049412851785855.66409817
5168878.000462431785837.51912134 5168910.95184011785819.37414451
5168943.903217761785801.229167675168976.854267341785783.08419084
5169009.805645011785764.939214015169042.757022681785746.79423717
5169075.708400351785728.649260345169108.659449931785710.50428351
 5169141.61082761785692.359306675169174.562205261785674.21432984
5169207.513254841785656.069353015169240.464632511785637.92437617
5169273.416010181785619.779399345169306.36705976 1785601.6344225
5169339.318437431785583.489445675169372.269815091785565.34446884
5169405.22086468  1785547.1994925169438.172242341785529.05451517
5169471.123620011785510.90953834 5169504.0746696 1785492.7645615
5169537.026047261785474.619584675169569.977424931785456.47460784
5169602.92847452  1785438.3296315169635.879852181785420.18465417
5169668.831229841785402.039677345169701.78227943 1785383.8947005
 5169734.73365711785365.749723675169767.685034761785347.60474684
5169800.636084351785329.459770015169833.587462021785311.31479317
5169866.538839681785293.169816345169899.490217341785275.02483951
5169932.441266931785256.87986267 5169965.39264461785238.73488584
5169998.344022261785220.589909015170031.295071851785202.44493217
5170064.246449521785184.299955345170097.197827181785166.15497851
5170130.148876761785148.010001675170163.100254431785129.86502484
 5170196.05163211785111.720048015170229.002681681785093.57507117
5170261.954059351785075.430094345170294.90543702 1785057.2851175
 5170327.85648661785039.140140675170360.807864261785020.99516384
5170393.75924193  1785002.8501875170426.710291511784984.70521017
5170459.661669181784966.560233345170492.61304685 1784948.4152565
5170525.564096431784930.27027967 5170558.51547411784912.12530284
5170591.46685176  1784893.9803265170624.417901341784875.83534917
5170657.369279011784857.690372345170690.32065668 1784839.5453955
5170723.272034351784821.400418675170756.223083931784803.25544184
 5170789.17446161784785.110465015170822.125839261784766.96548817
5170855.076888841784748.820511345170888.028266511784730.67553451
5170920.979644181784712.530557675170953.930693761784694.38558084
5170986.882071431784676.24060401 5171019.83344911784658.09562717
5171052.784498681784639.950650345171085.735876341784621.80567351
5171118.687254011784603.660696675171151.638303591784585.51571984
5171184.589681261784567.370743015171217.541058931784549.22576617
5171250.492108511784531.080789345171283.443486181784512.93581251
5171316.394863841784494.790835675171349.345913431784476.64585884
5171382.29729109  1784458.5008825171415.248668761784440.35590517
5171448.199718351784422.211256425171481.151096021784404.06627959
5171514.102473681784385.921302755171547.053851341784367.77632592
5171580.004900931784349.631349095171612.956278591784331.48637225
5171645.907656261784313.341395425171678.858705851784295.19641859
5171711.810083521784277.051441765171744.761461181784258.90646492
5171777.712510761784240.761488095171810.663888431784222.61651126
 5171843.61526611784204.471534425171876.566315681784186.32655759
5171909.517693351784168.181580765171942.469071021784150.03660392
 5171975.42012061784131.891627095172008.371498261784113.74665026
5172041.322875931784095.601673425172074.273925511784077.45669659
5172107.225303181784059.311719765172140.176680851784041.16674292
5172173.127730431784023.02176609 5172206.07910811784004.87678926
5172239.030485761783986.731812425172271.981535351783968.58683559
5172304.932913011783950.441858755172337.884290681783932.29688192
5172370.835668351783914.151905095172403.786717931783896.00692825
 5172436.73809561783877.861951425172469.689473261783859.71697459
5172502.640522851783841.571997755172535.591900511783823.42702092
5172568.543278181783805.282044095172601.494327761783787.13706725
5172634.445705431783768.99209042 5172667.39708311783750.84711359
5172700.348132681783732.702136755172733.299510341783714.55715992
5172766.250888011783696.412183095172799.201937591783678.26720626
5172832.153315261783660.122229425172865.104692931783641.97725259
5172898.055742511783623.832275765172931.007120181783605.68729892
5172963.958497841783587.542322095172996.909547431783569.39734526
5173029.860925091783551.252368425173062.812302761783533.10739159
5173095.763352351783514.962414765173128.714730011783496.81743792
5173161.666107681783478.672461095173194.617485341783460.52748426
5173227.568534931783442.382507425173260.519912591783424.23753059
5173293.471290261783406.092553755173326.422339851783387.94757692
5173359.373717511783369.802600095173392.325095181783351.65762325
5173425.276144771783333.512646425173458.227522431783315.36766959
5173491.178900091783297.222692755173524.129949681783279.07771592
5173557.081327351783260.932739095173590.032705011783242.78776225
 5173622.98375461783224.642785425173655.935132271783206.49780859
5173688.886509931783188.352831755173721.837559511783170.20785492
5173754.788937181783152.062878095173787.740314851783133.91790126
5173820.691364431783115.77292442 5173853.64274211783097.62794759
5173886.594119761783079.482970765173919.545169351783061.33799392
5173952.496547011783043.193017095173985.447924681783025.04804026
5174018.399302351783006.903063425174051.350351931782988.75808659
 5174084.30172961782970.613109765174117.253107261782952.46813292
5174150.204156851782934.323156095174183.155534511782916.17817926
5174216.106912181782898.033202425174249.057961761782879.88822559
5174282.009339431782861.74324876 5174314.96071711782843.59827192
5174347.911766681782825.453295095174380.863144351782807.30831825
5174413.814522011782789.163341425174446.765571591782771.01836459
5174479.716949261782752.873387755174512.668326931782734.72841092
5174545.619376511782716.583434095174578.570754181782698.43845725
5174611.522131851782680.293480425174644.473181431782662.14850359
5174677.424559091782644.003526755174710.375936761782625.85854992
5174743.326986341782607.713573095174776.278364011782589.56859626
5174809.229741681782571.423619425174842.181119351782553.27864259
5174875.132168931782535.133665765174908.083546591782516.98868892
5174941.034924261782498.843712095174973.985973841782480.69873526
5175006.937351511782462.553758425175039.888729181782444.40878159
5175072.839778771782426.263804765175105.791156431782408.11882792
5175138.742534091782389.973851095175171.693583681782371.82887426
5175204.644961341782353.683897425175237.596339011782335.53892059
 5175270.54738861782317.393943765175303.498766271782299.24896692
5175336.450143931782281.103990095175369.401193511782262.95901325
5175402.35257118 1782244.81436455175435.303948851782226.66938767
5175468.254998431782208.52441084 5175501.2063761  1782190.379434
5175534.157753771782172.234457175175567.108803351782154.08948034
5175600.06018101 1782135.94450355175633.011558681782117.79952667
5175665.962936351782099.654549845175698.913985931782081.50957301
 5175731.86536361782063.364596175175764.816741271782045.21961934
5175797.767790851782027.074642515175830.719168511782008.92966567
5175863.670546181781990.784688845175896.621595761781972.63971201
5175929.572973431781954.49473517 5175962.52435111781936.34975834
5175995.475400681781918.204781515176028.426778351781900.05980467
5176061.378156011781881.91482784 5176094.32920561781863.76985101
5176127.280583261781845.624874175176160.231960931781827.47989734
5176193.183010511781809.334920515176226.134388181781791.18994367
5176259.085765851781773.044966845176292.03681543   1781754.89999
5176324.988193091781736.755013175176357.939570761781718.61003634
5176390.89062034 1781700.46505955176423.841998011781682.32008267
5176456.793375681781664.175105845176489.74475335  1781646.030129
5176522.695802931781627.885152175176555.647180591781609.74017534
5176588.59855826 1781591.59519855176621.549607841781573.45022167
5176654.500985511781555.305244845176687.45236318  1781537.160268
5176720.403412761781519.015291175176753.354790431781500.87031434
5176786.306168091781482.725337515176819.257217681781464.58036067
5176852.208595341781446.435383845176885.159973011781428.29040701
 5176918.11102261781410.145430175176951.062400261781392.00045334
5176984.013777931781373.855476515177016.964827521781355.71049967
5177049.916205181781337.565522845177082.867582841781319.42054601
5177115.818632431781301.27556917 5177148.77001011781283.13059234
5177181.721387761781264.985615515177214.672437351781246.84063867
5177247.623815021781228.695661845177280.57519268  1781210.550685
5177313.526570341781192.405708175177346.477619931781174.26073134
 5177379.4289976 1781156.11575455177412.380375271781137.97077767
5177445.331424851781119.825800845177478.28280251  1781101.680824
5177511.234180181781083.535847175177544.185229761781065.39087034
5177577.13660743 1781047.2458935 5177610.08798511781029.10091667
5177643.039034681781010.955939845177675.99041235  1780992.810963
5177708.941790011780974.66598617 5177741.89283961780956.52100934
5177774.844217261780938.376032515177807.795594931780920.23105567
5177840.746644511780902.086078845177873.698022181780883.94110201
5177906.649399851780865.796125175177939.600449431780847.65114834
 5177972.55182711780829.506171515178005.503204761780811.36119467
5178038.454254341780793.216217845178071.405632011780775.07124101
5178104.357009681780756.926264175178137.308387351780738.78128734
5178170.259436931780720.63631051 5178203.21081461780702.49133367
5178236.162192261780684.346356845178269.113241841780666.20138001
5178302.064619511780648.056403175178335.015997181780629.91142634
5178367.96704676 1780611.76644955178400.918424431780593.62147267
 5178433.86980211780575.476495845178466.82085168  1780557.331519
5178499.772229341780539.186542175178532.723607011780521.04156534
5178565.67465659 1780502.89658855178598.626034261780484.75161167
5178631.577411931780466.606634845178664.52846152  1780448.461658
5178697.479839181780430.316681175178730.431216841780412.17170434
5178763.382266431780394.02672751 5178796.33364411780375.88175067
5178829.285021761780357.736773845178862.236071351780339.59179701
5178895.187449021780321.446820175178928.138826681780303.30184334
5178961.090204341780285.156866515178994.041253931780267.01188967
 5179026.99263161780248.866912845179059.944009261780230.72193601
5179092.895058851780212.576959175179125.846436521780194.43198234
5179158.797814181780176.287005515179191.748863761780158.14202867
5179224.700241431780139.99705184 5179257.65161911780121.85207501
5179290.602668681780103.707098175179323.554046351780085.56244942
5179356.505424021780067.41747259 5179389.45647361780049.27249575
5179422.407851261780031.127518925179455.359228931780012.98254209
5179488.310278511779994.837565255179521.261656181779976.69258842
5179554.213033851779958.547611595179587.164083431779940.40263475
 5179620.11546111779922.257657925179653.066838761779904.11268109
5179686.017888341779885.967704265179718.969266011779867.82272742
5179751.920643681779849.677750595179784.872021351779831.53277376
5179817.823070931779813.38779692 5179850.77444861779795.24282009
5179883.725826261779777.097843265179916.676875841779758.95286642