Flow Title=top of levee
Program Version=4.20
Use Restart= 0 
Initial Flow Loc=fake            ,fake1           ,237757.8,100
Initial Storage Elev=1               ,16.9
Initial Storage Elev=2               ,0.55
Boundary Location=fake            ,fake1           ,3237.717,        ,                ,                ,                
Friction Slope=0.0001
Boundary Location=fake            ,fake1           ,237757.8,        ,                ,                ,                
Interval=1DAY
Flow Hydrograph= 100 
       1       1       1       1       1       1       1       1       1       1
       1       1       1       1       1       1       1       1       1       1
       1       1       1       1       1       1       1       1       1       1
       1       1       1       1       1       1       1       1       1       1
       1       1       1       1       1       1       1       1       1       1
       1       1       1       1       1       1       1       1       1       1
       1       1       1       1       1       1       1       1       1       1
       1       1       1       1       1       1       1       1       1       1
       1       1       1       1       1       1       1       1       1       1
       1       1       1       1       1       1       1       1       1       1
Flow Hydrograph QMult= 100 
DSS Path=
Use DSS=False
CWMS InputPosition= 0 
Use Fixed Start Time=False
Fixed Start Date/Time=,
Is Critical Boundary=False
Critical Boundary Flow=
