Plan Title=100 yr Encroached - Unsteady Flow
Program Version=5.00
Short Identifier=100yrEncrch                                                     
Simulation Date=01JAN2002,0100,05JAN2002,2400
Geom File=g02
Flow File=u02
Subcritical Flow
K Sum by GR= 0 
Std Step Tol= 0.01 
Critical Tol= 0.01 
Num of Std Step Trials= 20 
Max Error Tol= 0.3 
Flow Tol Ratio= 0.001 
Split Flow NTrial= 30 
Split Flow Tol= 0.02 
Split Flow Ratio= 0.02 
Log Output Level= 0 
Friction Slope Method= 1 
Unsteady Friction Slope Method= 2 
Unsteady Bridges Friction Slope Method= 1 
Calc Critical at every XS
Parabolic Critical Depth
Global Vel Dist= 0 , 0 , 0 
Global Log Level= 0 
CheckData=True
Encroach Param=-1 ,10,10, 2 
Encroach River=Beaver Creek    
Encroach Reach=Kentwood        
Encroach Node=5.99    
       5       1     1.2
Encroach Node=5.875*  
       5       1     1.2
Encroach Node=5.76    
       5       1     1.2
Encroach Node=5.685*  
       5       1     1.2
Encroach Node=5.61    
       5       1     1.2
Encroach Node=5.49*   
       5       1     1.2
Encroach Node=5.41    
       5       1     1.2
Encroach Node=5.4     
       5       1     1.2
Encroach Node=5.39    
       5       1     1.2
Encroach Node=5.24*   
       5       1     1.2
Encroach Node=5.13    
       5       1     1.2
Encroach Node=5.065*  
       5       1     1.2
Encroach Node=5.0     
       5       1     1.2
Unsteady Encroach River=Beaver Creek    
Unsteady Encroach Reach=Kentwood        
Unsteady Encroach RS=5.99    ,330.2,958
Unsteady Encroach RS=5.95166*,334.83,1095.21
Unsteady Encroach RS=5.91333*,337.59,1206.95
Unsteady Encroach RS=5.875*  ,332.48,1251.29
Unsteady Encroach RS=5.83666*,319.32,1261.42
Unsteady Encroach RS=5.79833*,300.84,1262.84
Unsteady Encroach RS=5.76    ,283.46,1258.86
Unsteady Encroach RS=5.7225* ,314.01,1298.05
Unsteady Encroach RS=5.685*  ,358.27,1341.19
Unsteady Encroach RS=5.6475* ,414.54,1380.63
Unsteady Encroach RS=5.61    ,481.59,1413.17
Unsteady Encroach RS=5.57666*,487.41,1390.32
Unsteady Encroach RS=5.54333*,454.85,1350.93
Unsteady Encroach RS=5.51*   ,436.7,1307.8
Unsteady Encroach RS=5.47666*,432.92,1260.79
Unsteady Encroach RS=5.44333*,449.02,1212.76
Unsteady Encroach RS=5.41    ,440,1148.06
Unsteady Encroach RS=5.4     ,440,1148.06
Unsteady Encroach RS=5.39    ,440,1148.06
Unsteady Encroach RS=5.3575* ,403.12,1145.1
Unsteady Encroach RS=5.325*  ,366.25,1108.65
Unsteady Encroach RS=5.2925* ,329.38,1065.28
Unsteady Encroach RS=5.26*   ,292.5,1015.89
Unsteady Encroach RS=5.2275* ,255.62,956.9
Unsteady Encroach RS=5.195*  ,218.75,883.63
Unsteady Encroach RS=5.1625* ,181.88,794.46
Unsteady Encroach RS=5.13    ,145,709.88
Unsteady Encroach RS=5.104*  ,192.8,778.55
Unsteady Encroach RS=5.078*  ,240.6,892.81
Unsteady Encroach RS=5.052*  ,288.4,990.39
Unsteady Encroach RS=5.026*  ,336.2,1168.73
Unsteady Encroach RS=5.0     ,384,1300
Computation Interval=1MIN
Output Interval=1HOUR
Instantaneous Interval=1HOUR
Mapping Interval=1HOUR
Run HTab= 1 
Run UNet= 1 
Run Sediment= 0 
Run PostProcess= 1 
Run WQNet= 0 
Run RASMapper= 0 
UNET Theta= 1 
UNET Theta Warmup= 1 
UNET ZTol= 0.02 
UNET ZSATol= 0.05 
UNET QTol=
UNET MxIter= 20 
UNET Max Iter WO Improvement= 0 
UNET MaxInSteps= 1 
UNET DtIC= 0 
UNET DtMin= 0 
UNET MaxCRTS= 20 
UNET WFStab= 2 
UNET SFStab= 1 
UNET WFX= 1 
UNET SFX= 1 
UNET DSS MLevel= 4 
UNET Pardiso=0
UNET DZMax Abort= 100 
UNET Use Existing IB Tables=-1 
UNET Froude Reduction=False
UNET Froude Limit= 1 
UNET Froude Power= 10 
UNET Time Slicing=0,0, 5 
UNET Junction Losses=0
UNET D1 Cores= 0 
UNET D2 Coriolis=0
UNET D2 Cores= 0 
UNET D2 Theta= 1 
UNET D2 Theta Warmup= 1 
UNET D2 Z Tol= 0.01 
UNET D2 Max Iterations= 20 
UNET D2 Equation= 0 
UNET D2 TotalICTime=
UNET D2 RampUpFraction=0.5
UNET D2 TimeSlices= 1 
UNET D2 Eddy Viscosity=
UNET D2 BCVolumeCheck=0
UNET D2 Latitude=
UNET D1D2 MaxIter= 0 
UNET D1D2 ZTol=0.01
UNET D1D2 QTol=0.1
UNET D1D2 MinQTol=1
DSS File=dss
Write IC File= 0 
Write IC File at Fixed DateTime=0
IC Time=,,
Write IC File Reoccurance=
Write IC File at Sim End=0
Echo Input=False
Echo Parameters=False
Echo Output=False
Write Detailed= 0 
HDF Write Warmup=0
HDF Write Time Slices=0
HDF Flush=0
HDF Compression= 1 
HDF Chunk Size= 1 
HDF Spatial Parts= 1 
HDF Use Max Rows=0
HDF Fixed Rows= 1 
Stage Flow Hydrograph=Beaver Creek    ,Kentwood        ,5.99
Stage Flow Hydrograph=Beaver Creek    ,Kentwood        ,5.95166*
Stage Flow Hydrograph=Beaver Creek    ,Kentwood        ,5.91333*
Stage Flow Hydrograph=Beaver Creek    ,Kentwood        ,5.875*
Stage Flow Hydrograph=Beaver Creek    ,Kentwood        ,5.83666*
Stage Flow Hydrograph=Beaver Creek    ,Kentwood        ,5.79833*
Stage Flow Hydrograph=Beaver Creek    ,Kentwood        ,5.76
Stage Flow Hydrograph=Beaver Creek    ,Kentwood        ,5.7225*
Stage Flow Hydrograph=Beaver Creek    ,Kentwood        ,5.685*
Stage Flow Hydrograph=Beaver Creek    ,Kentwood        ,5.6475*
Stage Flow Hydrograph=Beaver Creek    ,Kentwood        ,5.61
Stage Flow Hydrograph=Beaver Creek    ,Kentwood        ,5.57666*
Stage Flow Hydrograph=Beaver Creek    ,Kentwood        ,5.54333*
Stage Flow Hydrograph=Beaver Creek    ,Kentwood        ,5.51*
Stage Flow Hydrograph=Beaver Creek    ,Kentwood        ,5.47666*
Stage Flow Hydrograph=Beaver Creek    ,Kentwood        ,5.44333*
Stage Flow Hydrograph=Beaver Creek    ,Kentwood        ,5.41
Stage Flow Hydrograph=Beaver Creek    ,Kentwood        ,5.39
Stage Flow Hydrograph=Beaver Creek    ,Kentwood        ,5.3575*
Stage Flow Hydrograph=Beaver Creek    ,Kentwood        ,5.325*
Stage Flow Hydrograph=Beaver Creek    ,Kentwood        ,5.2925*
Stage Flow Hydrograph=Beaver Creek    ,Kentwood        ,5.26*
Stage Flow Hydrograph=Beaver Creek    ,Kentwood        ,5.2275*
Stage Flow Hydrograph=Beaver Creek    ,Kentwood        ,5.195*
Stage Flow Hydrograph=Beaver Creek    ,Kentwood        ,5.1625*
Stage Flow Hydrograph=Beaver Creek    ,Kentwood        ,5.13
Stage Flow Hydrograph=Beaver Creek    ,Kentwood        ,5.104*
Stage Flow Hydrograph=Beaver Creek    ,Kentwood        ,5.078*
Stage Flow Hydrograph=Beaver Creek    ,Kentwood        ,5.052*
Stage Flow Hydrograph=Beaver Creek    ,Kentwood        ,5.026*
Stage Flow Hydrograph=Beaver Creek    ,Kentwood        ,5.0
Calibration Method= 0 
Calibration Iterations= 20 
Calibration Max Change=0.05
Calibration Tolerance=0.2
Calibration Maximum=1.5
Calibration Minimum=0.5
Calibration Optimization Method= 1 
Calibration Window=,,,
WQ AD Non Conservative
WQ ULTIMATE=-1
WQ Max Comp Step=1
WQ Output Interval=15MIN
WQ Output Selected Increments= 0 
WQ Output face flow=0
WQ Output face velocity=0
WQ Output face area=0
WQ Output face dispersion=0
WQ Output cell volume=0
WQ Output cell surface area=0
WQ Output cell continuity=0
WQ Output cumulative cell continuity=0
WQ Output face conc=0
WQ Output face dconc_dx=0
WQ Output face courant=0
WQ Output face peclet=0
WQ Output face adv mass=0
WQ Output face disp mass=0
WQ Output cell mass=0
WQ Output cell source sink temp=0
WQ Output nsm pathways=0
WQ Output nsm derived pathways=0
WQ Output MaxMinRange=-1
WQ Daily Max Min Mean=-1
WQ Daily Range=0
WQ Daily Time=0
WQ Create Restart=0
WQ Fixed Restart=0
WQ Restart Simtime=
WQ Restart Date=
WQ Restart Hour=
WQ System Summary=0
WQ Write To DSS=0
WQ Use Fixed Temperature=0
WQ Fixed Temperature=
Sorting and Armoring Iterations= 10 
XS Update Threshold= 0.02 
Bed Roughness Predictor= 0 
Hydraulics Update Threshold= 0.02 
Energy Slope Method= 1 
Volume Change Method= 1 
Sediment Retention Method= 0 
XS Weighting Method= 0 
Number of US Weighted Cross Sections= 1 
Number of DS Weighted Cross Sections= 1 
Upstream XS Weight=0.25
Main XS Weight=0.5
Downstream XS Weight=0.25
Number of DS XS's Weighted with US Boundary= 1 
Upstream Boundary Weight= 1 
Weight of XSs Associated with US Boundary= 0 
Number of US XS's Weighted with DS Boundary= 1 
Downstream Boundary Weight= 0.5 
Weight of XSs Associated with DS Boundary= 0.5 
Sediment Output Level= 4 
Mass or Volume Output= 0 
Output Increment Type= 1 
Profile and TS Output Increment= 10 
XS Output Flag= 0 
XS Output Increment= 10 
Write Gradation File= 0 
Read Gradation Hotstart= 0 
Gradation File Name=
Write HDF5 File= 0 
Write DSS Sediment File= 0 
SV Curve= 0 
Specific Gage Flag= 0 
