Geom Title=Existing Conditions - with Encroachments
Program Version=4.00
Viewing Rectangle= 0.0052 , 0.8873 , 1.1199 ,-0.1861 

River Reach=Beaver Creek    ,Kentwood        
Reach XY= 19 
       0.1176471       0.9344262       0.1772761       0.9115069
       0.2183302       0.8835503       0.2495313       0.8512928
       0.2925101       0.7927356       0.3185022       0.7308646
       0.3529876        0.659898       0.3956838       0.5975334
       0.4400223       0.5416203       0.4794342       0.4878577
       0.5057088       0.4469982       0.5434786       0.3910851
       0.5738908       0.3346257       0.6025964       0.2835599
       0.6409484       0.2378002       0.6896311       0.1975398
       0.7520333       0.1609812       0.7963717       0.1394762
       0.8466237       0.1234499
Rch Text X Y=0.0636192,0.6505515
Reverse River Text= 0 

Type RM Length L Ch R = 1 ,5.99    ,146.67,200,133.33
BEGIN DESCRIPTION:
Upstream Boundary Cross Section
END DESCRIPTION:
Node Last Edited Time=Dec/03/1996 07:26:46
#Sta/Elev= 35 
       0     221       7   220.3      36   216.6     131   216.6     233   216.8
     282   216.6     351   216.4     518   216.1     591   213.3     627   213.2
     692     209     709   212.7     719   209.4     738   204.9     751   210.8
     771   212.8     797   213.7     820   211.6     866   214.8     879     214
     899   210.2     932   209.9     948   216.6    1011   218.1    1063   218.7
    1093   219.1    1198   218.5    1283   218.2    1542   218.4    1565   218.1
    1772   218.1    1791   218.4    1831   218.9    1887   220.4    1910   220.8
#Mann= 4 , 1 , 0 
       0      .1       0     518     .14       0     866     .04       0
     948     .14       0
Levee=-1,866,214.8,0,,,,
Bank Sta=866,948
XS Rating Curve= 0 ,0
XS HTab Starting El and Incr=210.9,0.51, 40 
Exp/Cntr=0.3,0.1

Type RM Length L Ch R = 1 ,5.95166*,146.67,200,133.33
Node Last Edited Time=May/16/2002 10:33:11
#Sta/Elev= 73 
       0  220.62    6.31  220.02   32.43  216.86   35.56  216.85   86.69  216.57
  118.02  216.42  188.93  216.23  209.91  216.26  254.05  216.08  316.21   215.9
  466.66  215.61  532.42  213.26  564.86  213.17  582.35  212.12  623.41  209.72
  638.73  212.82  647.74  210.08  664.85  206.35  676.56  211.28  694.58  212.97
  718.01  213.74  738.73  212.02  780.17  214.73  793.36  213.85  813.67  210.36
  816.46   210.3  829.49  209.45  847.17  209.08  853.45  211.23  857.01  211.77
  860.56  212.12  865.21  213.18  879.42  215.52  881.33  215.95  947.55  217.34
  976.26  217.66 1002.21   217.9 1007.63  217.96 1015.67  218.04 1026.13  218.15
 1033.74  218.23 1047.85  218.17 1076.81  218.04 1095.31  217.95  1110.6  217.89
 1144.11  217.77 1169.32  217.73 1200.69  217.58 1221.61  217.45 1229.65  216.71
 1233.45  216.73  1237.7  216.77 1269.07  216.89 1308.48  217.71 1324.57  216.81
 1324.57  216.94 1348.71  216.95 1356.75  216.94    1438  217.26 1446.04   217.3
 1505.69  216.88 1512.01  216.77 1529.87  217.15 1536.14  217.35 1598.88   217.5
 1617.39  217.42 1635.89  217.45 1747.45  217.81 1767.42  218.13 1789.53  218.42
 1809.46  218.67 1868.32  220.08  1892.5  220.48
#Mann= 5 , 1 , 0 
       0      .1       0  466.66    .133       0  780.17     .04       0
  881.33     .14       0  1892.5     .14       0
Bank Sta=780.17,881.33
XS Rating Curve= 0 ,0
XS HTab Starting El and Incr=209.58,0.55, 40 
Exp/Cntr=0.3,0.1

Type RM Length L Ch R = 1 ,5.91333*,146.67,200,133.33
Node Last Edited Time=May/16/2002 10:33:11
#Sta/Elev= 73 
       0  220.23    5.61  219.73   28.86  217.12   31.65   217.1   77.15  216.53
  105.03  216.25  168.14   215.7  186.81  215.72   226.1  215.57  281.42   215.4
  415.32  215.13  473.85  213.23  502.71  213.14  518.28   212.3  554.83  210.43
  568.46  212.93  576.47  210.75  591.71  207.79  602.13  211.76  618.17  213.13
  639.01  213.79  657.45  212.44  694.33  214.67  707.73  213.71  728.33  210.52
  731.17  210.42  744.39  208.84  762.33  208.27  771.96  211.32  777.41  211.72
  782.85  211.72  789.97  212.93  811.74  214.82  814.67   215.3  884.11  216.58
   914.2  216.91  941.42   217.1   947.1  217.15  955.54  217.21   966.5   217.3
  974.49  217.37  989.28  217.32 1019.65  217.21 1039.05  217.14 1055.08  217.09
 1090.22  217.04 1116.66  217.04 1149.55  216.84 1171.49  216.66 1179.92  215.21
 1183.91  215.26 1188.36  215.34 1221.25  215.55 1262.59  217.17 1279.46  215.34
 1279.46  215.61 1304.77  215.62  1313.2  215.59  1398.4  216.17 1406.83  216.24
 1469.38  215.36    1476  215.21 1494.73   216.2 1501.31   216.6 1567.11   216.9
 1586.51  216.73 1605.91   216.8 1722.89  217.53 1743.84  217.86 1767.03  218.18
 1787.92  218.44 1849.65  219.77    1875  220.17
#Mann= 5 , 1 , 0 
       0      .1       0  415.32    .127       0  694.33     .04       0
  814.67     .14       0    1875     .14       0
Bank Sta=694.33,814.67
XS Rating Curve= 0 ,0
XS HTab Starting El and Incr=208.77,0.57, 40 
Exp/Cntr=0.3,0.1

Type RM Length L Ch R = 1 ,5.875*  ,146.67,200,133.33
Node Last Edited Time=May/16/2002 10:33:11
#Sta/Elev= 73 
       0  219.85    4.92  219.45    25.3  217.38   27.74  217.35   67.61   216.5
   92.05  216.07  147.36  215.18  163.72  215.18  198.15  215.05  246.63   214.9
  363.98  214.64  415.27  213.19  440.57  213.11  454.21  212.47  486.24  211.15
  498.18  213.05  505.21  211.43  518.56  209.24  527.69  212.23  541.75   213.3
  560.02  213.83  576.18  212.85   608.5   214.6  622.09  213.56     643  210.68
  645.88  210.54  659.29  208.23   677.5  207.45  690.47  211.42   697.8  211.66
  705.14  211.31  714.72  212.67  744.05  214.11     748  214.65  820.66  215.82
  852.15  216.16  880.63   216.3  886.58  216.33   895.4  216.39  906.88  216.45
  915.23   216.5  930.71  216.46  962.49  216.38  982.79  216.33  999.56  216.29
 1036.33  216.31 1063.99  216.36 1098.41  216.11 1121.36  215.87 1130.19  213.71
 1134.36  213.79 1139.02   213.9 1173.44  214.21 1216.69  216.63 1234.34  213.88
 1234.34  214.28 1260.82  214.29 1269.65  214.25  1358.8  215.08 1367.63  215.18
 1433.08  213.84    1440  213.66  1459.6  215.25 1466.48  215.85 1535.33   216.3
 1555.63  216.05 1575.93  216.15 1698.34  217.24 1720.25  217.58 1744.52  217.93
 1766.39  218.21 1830.97  219.45  1857.5  219.85
#Mann= 5 , 1 , 0 
       0      .1       0  363.98     .12       0   608.5     .04       0
     748     .14       0  1857.5     .14       0
Bank Sta=608.5,748
XS Rating Curve= 0 ,0
XS HTab Starting El and Incr=207.95,0.6, 40 
Exp/Cntr=0.3,0.1

Type RM Length L Ch R = 1 ,5.83666*,146.67,200,133.33
Node Last Edited Time=May/16/2002 10:33:11
#Sta/Elev= 73 
       0  219.47    4.22  219.16   21.73  217.64   23.83   217.6   58.07  216.47
   79.06  215.89  126.57  214.65  140.63  214.65   170.2  214.53  211.84   214.4
  312.63  214.15  356.69  213.15  378.42  213.08  390.14  212.65  417.65  211.86
  427.91  213.17  433.95  212.11  445.41  210.69  453.26  212.71  465.33  213.46
  481.02  213.87   494.9  213.27  522.67  214.53  536.45  213.42  557.67  210.85
  560.58  210.66  574.19  207.62  592.67  206.63  608.98  211.51   618.2  211.61
  627.42  210.91  639.48  212.41  676.37  213.41  681.33     214  757.21  215.06
   790.1  215.41  819.84   215.5  826.05  215.52  835.27  215.56  847.25   215.6
  855.98  215.63  872.14  215.61  905.32  215.56  926.52  215.52  944.04  215.49
  982.44  215.59 1011.33  215.67 1047.28  215.37 1071.24  215.08 1080.46   212.2
 1084.82  212.33 1089.68  212.47 1125.63  212.88 1170.79  216.09 1189.23  212.42
 1189.23  212.96 1216.88  212.96  1226.1   212.9  1319.2  213.98 1328.42  214.12
 1396.77  212.32    1404  212.11 1424.47   214.3 1431.66   215.1 1503.55   215.7
 1524.75  215.37 1545.95   215.5 1673.79  216.95 1696.67  217.31 1722.01  217.69
 1744.85  217.99  1812.3  219.13    1840  219.53
#Mann= 5 , 1 , 0 
       0      .1       0  312.63    .113       0  522.67     .04       0
  681.33     .14       0    1840     .14       0
Bank Sta=522.67,681.33
XS Rating Curve= 0 ,0
XS HTab Starting El and Incr=207.13,0.62, 40 
Exp/Cntr=0.3,0.1

Type RM Length L Ch R = 1 ,5.79833*,146.67,200,133.33
Node Last Edited Time=May/16/2002 10:33:11
#Sta/Elev= 73 
       0  219.08    3.53  218.88   18.16  217.89   19.91  217.85   48.54  216.43
   66.08  215.72  105.79  214.13  117.53  214.11  142.25  214.02  177.05   213.9
  261.29  213.66  298.12  213.11  316.28  213.06  326.07  212.82  349.06  212.58
  357.64  213.28  362.68  212.79  372.27  212.14  378.82  213.19  388.91  213.63
  402.03  213.92  413.63  213.69  436.83  214.47  450.82  213.27  472.33  211.01
  475.29  210.78   489.1  207.01  507.83  205.82  527.49  211.61   538.6  211.55
  549.71   210.5  564.24  212.16  608.68   212.7  614.67  213.35  693.77   214.3
  728.05  214.65  759.05   214.7  765.53  214.71  775.13  214.73  787.63  214.75
  796.72  214.77  813.57  214.75  848.16  214.73  870.26  214.71  888.52   214.7
  928.55  214.86  958.66  214.99  996.14  214.63 1021.12  214.29 1030.73   210.7
 1035.27  210.86 1040.34  211.03 1077.81  211.54  1124.9  215.54 1144.11  210.96
 1144.11  211.63 1172.94  211.63 1182.55  211.55  1279.6  212.89 1289.21  213.06
 1360.46  210.81    1368  210.55 1389.34  213.35 1396.83  214.35 1471.78   215.1
 1493.88  214.68 1515.98  214.85 1649.23  216.67 1673.09  217.04 1699.51  217.44
 1723.31  217.76 1793.62  218.82  1822.5  219.22
#Mann= 5 , 1 , 0 
       0      .1       0  261.29    .107       0  436.83     .04       0
  614.67     .14       0  1822.5     .14       0
Bank Sta=436.83,614.67
XS Rating Curve= 0 ,0
XS HTab Starting El and Incr=206.32,0.64, 40 
Exp/Cntr=0.3,0.1

Type RM Length L Ch R = 1 ,5.76    ,112.5,200,137.5
BEGIN DESCRIPTION:
River Mile 5.76
END DESCRIPTION:
Node Last Edited Time=Dec/03/1996 07:26:46
#Sta/Elev= 43 
       0   218.7      16   218.1      39   216.4      85   213.6     262     213
     351   214.4     390   210.9     404   206.4     423     205     446   211.7
     459   211.5     472   210.1     489   211.9     541     212     548   212.7
     666   213.9     705   213.9     715   213.9     728   213.9     755   213.9
     791   213.9     814   213.9     833   213.9     906   214.3     945   213.9
     971   213.5     981   209.2     991   209.6    1030   210.2    1079     215
    1099   209.5    1099   210.3    1129   210.3    1139   210.2    1240   211.8
    1250     212    1332     209    1362   213.6    1440   214.5    1463     214
    1486   214.2    1677   217.2    1805   218.9
#Mann= 3 , 1 , 0 
       0      .1       0     351     .04       0     548     .14       0
Levee=0,,,-1,906,214.3,,
Bank Sta=351,548
XS Rating Curve= 0 ,0
XS HTab Starting El and Incr=206,0.64, 40 
Exp/Cntr=0.3,0.1

Type RM Length L Ch R = 1 ,5.7225* ,112.5,200,137.5
Node Last Edited Time=May/16/2002 10:33:11
#Sta/Elev= 69 
       0  218.65   21.46  218.07   46.51  216.89   52.31  216.59  113.43  213.89
     114  213.87   267.7  212.88  277.35  212.22  286.42   211.9  293.79  212.86
  351.39  212.62  359.02  212.67   411.2  212.83  470.75  213.15  500.95  210.36
  511.79  206.93   526.5   205.8   526.5  204.85  544.81  209.89  552.46  209.79
  555.16  209.78   565.5  208.82  579.04   210.3   608.7  210.63  620.43  211.18
     626  211.95  683.43  212.27  707.45   212.5  721.02  212.13  738.78  212.37
  742.36  212.42  776.37   212.6  776.37  213.17  780.81   213.2  790.68  213.26
  803.49  213.34  830.12  213.51  865.62  213.73   888.3  213.88  892.28   213.9
  907.03  213.89  971.64  214.09  979.02  214.12 1017.47  213.81 1043.11   213.5
 1052.97  210.27 1062.83  210.57 1101.29     211 1111.57  211.77 1149.61  214.59
 1169.33  210.46 1169.33  211.06 1194.06  211.05 1198.91  211.06 1208.77     211
 1297.44  212.22 1308.37  212.37 1318.23  212.53 1399.09   210.4 1428.67  213.89
 1471.83  214.33 1505.58  214.68 1528.26  214.35 1550.94  214.53 1619.06  215.46
 1725.57  216.94 1739.28  217.14 1845.66  218.52  1865.5   218.8
#Mann= 5 , 1 , 0 
       0    .095       0  293.79    .085       0  470.75     .04       0
     626     .12       0  1865.5     .12       0
Bank Sta=470.75,626
XS Rating Curve= 0 ,0
XS HTab Starting El and Incr=205.35,0.67, 40 
Exp/Cntr=0.3,0.1

Type RM Length L Ch R = 1 ,5.685*  ,112.5,200,137.5
Node Last Edited Time=May/16/2002 10:33:11
#Sta/Elev= 69 
       0   218.6   26.92  218.05   58.34  217.06   65.61  216.78  142.29  214.16
     143  214.14   335.8  212.56   347.9  211.24  359.28  210.63  368.53  212.57
  440.77  212.24  450.35  212.24   515.8  211.95   590.5   211.9   611.9  209.82
  619.58  207.46     630   206.6     630   204.7  643.62  208.09   649.3  208.03
  651.31  208.05  659.01  207.54  669.07   208.7  691.13  209.29  699.86  210.35
     704   211.2  760.62  211.25   784.3  211.47  797.68  210.59  815.18  210.88
  818.71  210.94  852.25   211.3  852.25  212.45  856.63  212.51  866.35  212.63
  878.99  212.79  905.24  213.12  940.23  213.57  962.59  213.85  966.52   213.9
  981.06  213.87 1044.76  213.93 1052.03  213.94 1089.95  213.72 1115.22   213.5
 1124.94  211.34 1134.67  211.53 1172.58  211.81 1182.71  212.31 1220.21  214.18
 1239.66  211.41 1239.66  211.82 1264.04   211.8 1268.82  211.82 1278.54   211.8
 1365.96  212.81 1376.73  212.93 1386.45  213.06 1466.17  211.79 1495.33  214.18
 1537.88  214.55 1571.16  214.86 1593.52  214.69 1615.88  214.87 1683.04  215.64
 1788.05  216.89 1801.56  217.08 1906.44  218.42    1926   218.7
#Mann= 5 , 1 , 0 
       0     .09       0  368.53     .09       0   590.5     .04       0
     704      .1       0    1926      .1       0
Bank Sta=590.5,704
XS Rating Curve= 0 ,0
XS HTab Starting El and Incr=205.2,0.68, 40 
Exp/Cntr=0.3,0.1

Type RM Length L Ch R = 1 ,5.6475* ,112.5,200,137.5
Node Last Edited Time=May/16/2002 10:33:11
#Sta/Elev= 69 
       0  218.55   32.38  218.02   70.17  217.23   78.92  216.97  171.14  214.43
     172  214.42   403.9  212.23  418.45  210.27  432.14  209.37  443.26  212.29
  530.16  211.85  541.67  211.82   620.4  211.08  710.25  210.65  722.84  209.29
  727.36  207.99   733.5   207.4   733.5  204.55  742.42  206.28  746.15  206.26
  747.47  206.33  752.51  206.27  759.11  207.09  773.57  207.94  779.28  209.53
     782  210.45  837.81  210.22  861.15  210.43  874.34  209.04  891.59  209.39
  895.07  209.46  928.12     210  928.12  211.73  932.44  211.81  942.03  211.99
  954.48  212.23  980.35  212.73 1014.85   213.4 1036.89  213.83 1040.76   213.9
  1055.1  213.86 1117.88  213.76 1125.05  213.77 1162.42  213.63 1187.33   213.5
 1196.92  212.41  1206.5   212.5 1243.87  212.61 1253.86  212.86 1290.82  213.77
 1309.99  212.37 1309.99  212.57 1334.02  212.55 1338.73  212.57 1348.32   212.6
 1434.48  213.41  1445.1   213.5 1454.68  213.59 1533.26  213.19    1562  214.46
 1603.94  214.78 1636.74  215.05 1658.78  215.04 1680.82   215.2 1747.02  215.82
 1850.52  216.85 1863.85  217.02 1967.22  218.31  1986.5   218.6
#Mann= 5 , 1 , 0 
       0    .085       0  443.26    .095       0  710.25     .04       0
     782     .08       0  1986.5     .08       0
Bank Sta=710.25,782
XS Rating Curve= 0 ,0
XS HTab Starting El and Incr=205.05,0.68, 40 
Exp/Cntr=0.3,0.1

Type RM Length L Ch R = 1 ,5.61    ,125,181.67,146.67
BEGIN DESCRIPTION:
River Mile 5.61
END DESCRIPTION:
Node Last Edited Time=Dec/03/1996 07:26:46
#Sta/Elev= 31 
       0   218.5      82   217.4     200   214.7     472   211.9     489   209.3
     505   208.1     518     212     633   211.4     725   210.2     830   209.4
     837   208.2     837   204.4     843   204.5     856   206.6     860   209.7
     915   209.2     938   209.4     951   207.5     968   207.9    1004   208.7
    1004     211    1115   213.9    1191   213.6    1325   213.4    1404   213.3
    1503     214    1670     215    1811     216    1913   216.8    2028   218.2
    2047   218.5
#Mann= 4 , 1 , 0 
       0     .08       0     518      .1       0     830     .04       0
     860     .06       0
Bank Sta=830,860
XS Rating Curve= 0 ,0
XS HTab Starting El and Incr=205.4,0.66, 40 
Exp/Cntr=0.3,0.1

Type RM Length L Ch R = 1 ,5.57666*,125,181.67,146.67
Node Last Edited Time=May/16/2002 10:33:11
#Sta/Elev= 92 
       0  218.34   20.44  217.84    67.3  216.99   75.74  216.86  130.16  215.56
  184.74  214.32  275.15  213.27  307.35  212.95  417.07  211.95  435.98  211.79
  451.69  209.65  466.47  208.66  478.47  211.93  537.01  211.72   584.7  211.56
  604.81  211.35  669.68  210.64  766.67  210.07  768.16  209.92  768.88  209.67
  770.37  209.35  771.12  209.18  772.59  209.05  773.33  208.97  774.82  208.92
  775.57  208.75  777.04  208.83  777.78  208.77  779.27  208.57  780.02   208.5
  781.49  208.32  782.23  207.85  783.73  207.67  784.45   207.6  785.94  207.48
  786.69  207.42  788.15  207.37   788.9  207.28   788.9  204.12  791.28   204.2
  793.67  204.44  794.82  204.35   797.2  204.24  798.19  204.24   798.4  204.25
  800.74  204.57  801.93  204.74  804.32  205.07  805.51  205.35  807.86  205.67
  809.05  205.94  811.43  206.24  812.62  206.46  814.97  206.71  816.16  206.86
  818.31   207.1  818.54   207.2   819.7  207.96  822.08  209.11  823.27  209.75
   824.5  210.33  847.25  209.91  879.62  209.74  902.68  209.95   915.7   208.4
  924.38  208.59  932.74  208.76  968.82  209.46  968.82  211.38  989.65  211.85
 1060.85  213.35 1080.07  213.77 1132.05   213.6 1156.24  213.46 1184.47  213.35
 1255.67  213.14 1290.54   213.1  1332.8  213.06 1369.72  213.12 1410.93  213.48
 1468.94  213.88 1495.97  214.05 1544.43  214.38 1612.67   214.7 1636.32  214.83
 1719.47  215.37 1777.64  215.78 1826.27  216.15 1879.87  216.55 1995.12  217.82
  2011.2  218.04 2014.17  218.83
#Mann= 6 , 1 , 0 
       0    .092       0  275.15    .167       0  478.47    .125       0
  766.67     .04       0   824.5    .075       0 2014.17    .075       0
Bank Sta=766.67,824.5
XS Rating Curve= 0 ,0
XS HTab Starting El and Incr=204.62,0.71, 40 
Exp/Cntr=0.3,0.1

Type RM Length L Ch R = 1 ,5.54333*,125,181.67,146.67
Node Last Edited Time=May/16/2002 10:33:11
#Sta/Elev= 92 
       0  218.18   18.76  217.49   61.74  216.46   69.49  216.32  119.41  215.08
  169.48  213.93  252.42  212.85  281.96  212.57  382.61  211.78  399.97  211.69
  414.37  209.99  427.93  209.23  438.95  211.86  492.65  211.78   536.4  211.72
  554.85  211.58  614.36  211.09  703.33  210.73  705.85  210.51  707.06  210.05
  709.58   209.5  710.83  209.21  713.31  209.02  714.57  208.89  717.08  208.87
  718.34  208.58  720.81  208.83  722.07  208.73  724.58  208.41  725.84  208.32
  728.31  208.03  729.57  207.14  732.08  206.85   733.3  206.76  735.81  206.61
  737.07  206.51  739.54  206.49   740.8  206.37   740.8  203.83  744.03  203.98
  747.25  204.43  748.82  204.24  752.04  203.99  753.37  203.97  753.66  203.98
  756.83  204.38  758.45  204.59  761.67  204.99  763.29  205.44  766.46  205.84
  768.08  206.26   771.3  206.59  772.92   206.9  776.09  207.17  777.71  207.35
  780.62  207.59  780.93  207.68   782.5  208.63  785.72  209.73  787.34  210.42
     789  210.97   811.8  210.33  844.25  210.27  867.35  210.51  880.41   209.3
   889.1  209.47  897.49  209.62  933.65  210.22  933.65  211.76  954.52  212.16
 1025.88   213.3 1045.15  213.63 1097.24   213.5 1121.49  213.31 1149.77  213.14
 1221.13  212.83 1256.09   212.8 1298.44  212.76 1335.44  212.94 1376.74  213.36
 1434.89  213.77 1461.98  213.94 1510.55   214.3 1578.93  214.54 1602.64  214.66
 1685.98  215.16 1744.27  215.56 1793.02  215.92 1846.73   216.3 1962.25  217.44
 1978.36  217.64 1981.33  219.17
#Mann= 6 , 1 , 0 
       0    .103       0  252.42    .183       0  438.95     .15       0
  703.33     .04       0     789     .09       0 1981.33     .09       0
Bank Sta=703.33,789
XS Rating Curve= 0 ,0
XS HTab Starting El and Incr=204.33,0.74, 40 
Exp/Cntr=0.3,0.1

Type RM Length L Ch R = 1 ,5.51*   ,125,181.67,146.67
Node Last Edited Time=May/16/2002 10:33:11
#Sta/Elev= 92 
       0  218.02   17.07  217.13   56.18  215.92   63.23  215.78  108.66  214.59
  154.22  213.55  229.69  212.43  256.57  212.19  348.16  211.62  363.95  211.58
  377.06  210.34   389.4  209.79  399.42  211.79  448.28  211.83   488.1  211.88
  504.89  211.81  559.04  211.53     640   211.4  643.53  211.11  645.25  210.44
  648.78  209.65  650.55  209.23  654.03  208.99   655.8  208.82  659.33  208.83
   661.1  208.41  664.58  208.82  666.35   208.7  669.88  208.26  671.65  208.14
  675.13  207.75   676.9  206.43  680.44  206.04  682.15  205.92  685.68  205.73
  687.45  205.61  690.93  205.62   692.7  205.45   692.7  203.55  696.77  203.76
  700.84  204.43  702.81  204.13  706.88  203.74  708.56  203.71  708.92  203.71
  712.93  204.18  714.96  204.45  719.03  204.92  721.07  205.53  725.07     206
  727.11  206.57  731.18  206.94  733.21  207.35  737.22  207.63  739.26  207.84
  742.93  208.09  743.33  208.16   745.3   209.3  749.37  210.34   751.4  211.09
   753.5   211.6  776.35  210.75  808.87  210.81  832.03  211.06  845.11  210.19
  853.83  210.35  862.23  210.48  898.47  210.99  898.47  212.14  919.39  212.47
  990.91  213.25 1010.22   213.5 1062.43   213.4 1086.73  213.17 1115.08  212.93
  1186.6  212.53 1221.63   212.5 1264.08  212.47 1301.17  212.76 1342.56  213.25
 1400.83  213.65 1427.98  213.83 1476.66  214.23  1545.2  214.38 1568.96  214.49
 1652.48  214.94 1710.91  215.34 1759.76  215.69  1813.6  216.04 1929.37  217.06
 1945.52  217.23  1948.5   219.5
#Mann= 6 , 1 , 0 
       0    .115       0  229.69      .2       0  399.42    .175       0
     640     .04       0   753.5    .105       0  1948.5    .105       0
Bank Sta=640,753.5
XS Rating Curve= 0 ,0
XS HTab Starting El and Incr=204.05,0.77, 40 
Exp/Cntr=0.3,0.1

Type RM Length L Ch R = 1 ,5.47666*,125,181.67,146.67
Node Last Edited Time=May/16/2002 10:33:11
#Sta/Elev= 92 
       0  217.87   15.38  216.77   50.62  215.39   56.97  215.24   97.91   214.1
  138.96  213.16  206.96  212.01  231.18   211.8  313.71  211.46  327.94  211.48
  339.75  210.69  350.86  210.36   359.9  211.72  403.92  211.89   439.8  212.03
  454.93  212.04  503.71  211.97  576.67  212.07  581.22  211.71  583.43  210.83
  587.99   209.8  590.27  209.25  594.75  208.96  597.03  208.75  601.59  208.79
  603.87  208.24  608.36  208.81  610.63  208.67  615.19  208.11  617.47  207.96
  621.96  207.47  624.23  205.72  628.79  205.23     631  205.08  635.56  204.85
  637.83  204.71  642.32  204.75   644.6  204.53   644.6  203.27  649.51  203.54
  654.43  204.42  656.81  204.02  661.72   203.5  663.75  203.45  664.18  203.44
  669.02  203.99  671.47   204.3  676.39  204.85  678.84  205.62  683.68  206.17
  686.14  206.88  691.05  207.29  693.51   207.8  698.35  208.08   700.8  208.33
  705.23  208.58  705.72  208.64   708.1  209.97  713.01  210.96  715.47  211.76
     718  212.23   740.9  211.16  773.49  211.35   796.7  211.61  809.82  211.09
  818.55  211.23  826.97  211.33  863.29  211.75  863.29  212.51  884.26  212.78
  955.94   213.2  975.29  213.37 1027.62   213.3 1051.97  213.02 1080.39  212.72
 1152.07  212.22 1187.18   212.2 1229.72  212.18 1266.89  212.58 1308.37  213.13
 1366.78  213.54 1393.99  213.72 1442.77  214.15 1511.47  214.22 1535.28  214.33
 1618.99  214.73 1677.55  215.12 1726.51  215.46 1780.46  215.79  1896.5  216.68
 1912.68  216.82 1915.67  219.83
#Mann= 6 , 1 , 0 
       0    .127       0  206.96    .217       0   359.9      .2       0
  576.67     .04       0     718     .12       0 1915.67     .12       0
Bank Sta=576.67,718
XS Rating Curve= 0 ,0
XS HTab Starting El and Incr=203.77,0.8, 40 
Exp/Cntr=0.3,0.1

Type RM Length L Ch R = 1 ,5.44333*,125,181.67,146.67
Node Last Edited Time=May/16/2002 10:33:11
#Sta/Elev= 92 
       0  217.71   13.69  216.41   45.06  214.85   50.71   214.7   87.15  213.62
  123.69  212.78  184.23  211.59  205.79  211.42  279.25  211.29  291.92  211.37
  302.43  211.03  312.33  210.92  320.37  211.65  359.56  211.94  391.49  212.19
  404.96  212.27  448.39  212.42  513.33  212.73  518.91   212.3  521.62  211.21
  527.19  209.95  529.98  209.28  535.48  208.93  538.27  208.67  543.84  208.74
  546.63  208.07  552.13  208.81  554.92  208.63  560.49  207.95  563.28  207.78
  568.78  207.18  571.57  205.01  577.15  204.41  579.85  204.24  585.43  203.98
  588.22   203.8  593.71  203.87   596.5  203.62   596.5  202.98  602.26  203.32
  608.01  204.41   610.8  203.91  616.56  203.25  618.93  203.18  619.44  203.17
  625.11  203.79  627.99  204.15  633.74  204.77  636.62  205.71  642.29  206.33
  645.17  207.19  650.93  207.65   653.8  208.25  659.47  208.54  662.35  208.81
  667.54  209.08  668.11  209.12   670.9  210.63  676.66  211.58  679.53  212.43
   682.5  212.87  705.45  211.58  738.12  211.88  761.38  212.17  774.52  211.99
  783.28  212.12  791.71  212.19  828.12  212.51  828.12  212.89  849.13  213.09
  920.97  213.15  940.36  213.23  992.81   213.2 1017.22  212.88 1045.69  212.51
 1117.53  211.91 1152.72   211.9 1195.36  211.89 1232.61   212.4 1274.19  213.02
 1332.72  213.42 1359.99  213.61 1408.89  214.08 1477.73  214.06  1501.6  214.16
 1585.49  214.51 1644.18   214.9 1693.25  215.23 1747.33  215.54 1863.62  216.29
 1879.84  216.41 1882.83  220.17
#Mann= 6 , 1 , 0 
       0    .138       0  184.23    .233       0  320.37    .225       0
  513.33     .04       0   682.5    .135       0 1882.83    .135       0
Bank Sta=513.33,682.5
XS Rating Curve= 0 ,0
XS HTab Starting El and Incr=203.48,0.83, 40 
Exp/Cntr=0.3,0.1

Type RM Length L Ch R = 1 ,5.41    ,100,100,100
BEGIN DESCRIPTION:
Upstream of bridge embankment
END DESCRIPTION:
Node Last Edited Time=Dec/03/1996 07:26:46
#Sta/Elev= 66 
       0  217.55      12  216.05    39.5  214.32    76.4  213.13   161.5  211.17
   180.4  211.04   244.8  211.13   315.2     212     355   212.5     450   213.4
   456.6   212.9   459.8   211.6   466.4   210.1   469.7   209.3   476.2   208.9
   479.5   208.6   486.1   208.7   489.4   207.9   495.9   208.8   499.2   208.6
   505.8   207.8   509.1   207.6   515.6   206.9   518.9   204.3   525.5   203.6
   528.7   203.4   535.3   203.1   538.6   202.9   545.1     203   548.4   202.7
     555   203.1   561.6   204.4   564.8   203.8   571.4     203   574.7   202.9
   581.2   203.6   584.5     204   591.1   204.7   594.4   205.8   600.9   206.5
   604.2   207.5   610.8     208   614.1   208.7   620.6     209   623.9   209.3
   630.5   209.6   633.7   211.3   640.3   212.2   643.6   213.1     647   213.5
     670     212     748     213     814   213.4     886   213.1     958   213.1
    1011   212.3    1083   211.6    1161   211.6    1240   212.9    1326   213.5
    1375     214    1444   213.9    1552   214.3    1660     215    1847     216
    1850   220.5
#Mann= 4 , 1 , 0 
       0     .15       0   161.5     .25       0     450     .04       0
     647     .15       0
#XS Ineff= 2 , 0 
             420   215.7     677           215.7
Permanent Ineff=
       F       F
Bank Sta=450,647
XS Rating Curve= 0 ,0
XS HTab Starting El and Incr=203.7,0.84, 40 
Exp/Cntr=0.5,0.3

Type RM Length L Ch R = 3 ,5.4     ,,,
BEGIN DESCRIPTION:
Bridge # 1
END DESCRIPTION:
Node Last Edited Time=May/17/2002 13:48:21
Bridge Culvert--1,-1,-1,-1, 0 
Deck Dist Width WeirC Skew NumUp NumDn MinLoCord MaxHiCord MaxSubmerge Is_Ogee
30,40,2.6,0, 6, 6, , , 0.95, 0, 2,2,,
       0     450     450     647     647    2000
  216.93  216.93  216.93  216.93  216.93  216.93
     200     200   215.7   215.7     200     200
       0     450     450     647     647    2000
  216.93  216.93  216.93  216.93  216.93  216.93
     200     200   215.7   215.7     200     200
Pier Skew, UpSta & Num, DnSta & Num=  ,470, 2 ,470, 2 , 0 , 0 , 0 ,,
    1.25    1.25
     200     216
    1.25    1.25
     200     216
Pier Skew, UpSta & Num, DnSta & Num=  ,490, 2 ,490, 2 , 0 , 0 , 0 ,,
    1.25    1.25
     200     216
    1.25    1.25
     200     216
Pier Skew, UpSta & Num, DnSta & Num=  ,510, 2 ,510, 2 , 0 , 0 , 0 ,,
    1.25    1.25
     200     216
    1.25    1.25
     200     216
Pier Skew, UpSta & Num, DnSta & Num=  ,530, 2 ,530, 2 , 0 , 0 , 0 ,,
    1.25    1.25
     200     216
    1.25    1.25
     200     216
Pier Skew, UpSta & Num, DnSta & Num=  ,550, 2 ,550, 2 , 0 , 0 , 0 ,,
    1.25    1.25
     200     216
    1.25    1.25
     200     216
Pier Skew, UpSta & Num, DnSta & Num=  ,570, 2 ,570, 2 , 0 , 0 , 0 ,,
    1.25    1.25
     200     216
    1.25    1.25
     200     216
Pier Skew, UpSta & Num, DnSta & Num=  ,590, 2 ,590, 2 , 0 , 0 , 0 ,,
    1.25    1.25
     200     216
    1.25    1.25
     200     216
Pier Skew, UpSta & Num, DnSta & Num=  ,610, 2 ,610, 2 , 0 , 0 , 0 ,,
    1.25    1.25
     200     216
    1.25    1.25
     200     216
Pier Skew, UpSta & Num, DnSta & Num=  ,630, 2 ,630, 2 , 0 , 0 , 0 ,,
    1.25    1.25
     200     216
    1.25    1.25
     200     216
BR Coef= 1 ,-1 ,-1 ,1.25, 0 ,,0.34,0.8,0,2,0,
WSPro=,,,, 1 ,,,, 0 ,,,, 0 ,,,,-1 ,-1 ,-1 , 0 , 0 , 0 , 0 , 0 
BC Design=,, 0 ,, 0 ,,,,,,
BC HTab HWMax=220
BC HTab TWMax=219
BC HTab MaxFlow=15000
BC Use User HTab Curves=0
BC User HTab FreeFlow(D)= 0 

Type RM Length L Ch R = 1 ,5.39    ,142.5,166.62,175
BEGIN DESCRIPTION:
Downstream of bridge embankment
END DESCRIPTION:
Node Last Edited Time=Dec/03/1996 07:26:46
#Sta/Elev= 63 
       0   216.8      89   213.6     210   211.2     285   210.8     367   211.9
     443   210.8     450   213.4   456.6   212.9   459.8   211.6   466.4   210.1
   469.7   209.3   476.2   208.9   479.5   208.6   486.1   208.7   489.4   207.9
   495.9   208.8   499.2   208.6   505.8   207.8   509.1   207.6   515.6   206.9
   518.9   204.3   525.5   203.6   528.7   203.4   535.3   203.1   538.6   202.9
   545.1     203   548.4   202.7     555   203.1   561.6   204.4   564.8   203.8
   571.4     203   574.7   202.9   581.2   203.6   584.5     204   591.1   204.7
   594.4   205.8   600.9   206.5   604.2   207.5   610.8     208   614.1   208.7
   620.6     209   623.9   209.3   630.5   209.6   633.7   211.3   640.3   212.2
   643.6   213.1     647   213.5     692   211.9     824   212.8     896   213.3
     961   213.2    1040     212    1093   211.7    1116     210    1243   211.1