Plan Title=Unsteady with Lat
Program Version=5.00
Short Identifier=Unstead lat                                                     
Simulation Date=10FEB1999,0000,12FEB1999,2400
Geom File=g01
Flow File=u01
Subcritical Flow
K Sum by GR= 0 
Std Step Tol= 0.01 
Critical Tol= 0.01 
Num of Std Step Trials= 20 
Max Error Tol= 0.33 
Flow Tol Ratio= 0.001 
Split Flow NTrial= 30 
Split Flow Tol= 0.02 
Split Flow Ratio= 0.02 
Log Output Level= 0 
Friction Slope Method= 1 
Unsteady Friction Slope Method= 2 
Unsteady Bridges Friction Slope Method= 1 
Calc Critical at every XS
Parabolic Critical Depth
Global Vel Dist= 0 , 0 , 0 
Global Log Level= 0 
CheckData=True
Encroach Param=-1 ,0,0, 0 
Computation Interval=30SEC
Output Interval=5MIN
Instantaneous Interval=1HOUR
Mapping Interval=1HOUR
Run HTab= 1 
Run UNet= 1 
Run Sediment= 0 
Run PostProcess= 1 
Run WQNet= 0 
Run RASMapper= 0 
UNET Theta= 1 
UNET Theta Warmup= 1 
UNET ZTol= 0.02 
UNET ZSATol= 0.1 
UNET QTol=
UNET MxIter= 20 
UNET Max Iter WO Improvement= 0 
UNET MaxInSteps= 20 
UNET DtIC= 0 
UNET DtMin= 0 
UNET MaxCRTS= 20 
UNET WFStab= 2 
UNET SFStab= 2 
UNET WFX= 3 
UNET SFX= 3 
UNET DSS MLevel= 4 
UNET Pardiso=0
UNET DZMax Abort= 100 
UNET Use Existing IB Tables=-1 
UNET Froude Reduction=False
UNET Froude Limit= 1 
UNET Froude Power= 10 
UNET Time Slicing=0,0, 5 
UNET Junction Losses=0
UNET D1 Cores= 0 
UNET D2 Coriolis=0
UNET D2 Cores= 0 
UNET D2 Theta= 1 
UNET D2 Theta Warmup= 1 
UNET D2 Z Tol= 0.01 
UNET D2 Max Iterations= 20 
UNET D2 Equation= 0 
UNET D2 TotalICTime=
UNET D2 RampUpFraction=0.5
UNET D2 TimeSlices= 1 
UNET D2 Eddy Viscosity=
UNET D2 BCVolumeCheck=0
UNET D2 Latitude=
UNET D1D2 MaxIter= 0 
UNET D1D2 ZTol=0.01
UNET D1D2 QTol=0.1
UNET D1D2 MinQTol=1
DSS File=dss
Write IC File= 0 
Write IC File at Fixed DateTime=0
IC Time=,,
Write IC File Reoccurance=
Write IC File at Sim End=0
Echo Input=False
Echo Parameters=False
Echo Output=False
Write Detailed= 0 
HDF Write Warmup=0
HDF Write Time Slices=0
HDF Flush=0
HDF Compression= 1 
HDF Chunk Size= 1 
HDF Spatial Parts= 1 
HDF Use Max Rows=0
HDF Fixed Rows= 1 
Stage Flow Hydrograph=Beaver Creek    ,Kentwood        ,5.99
Stage Flow Hydrograph=Beaver Creek    ,Kentwood        ,5.97
Stage Flow Hydrograph=Beaver Creek    ,Kentwood        ,5.951
Stage Flow Hydrograph=Beaver Creek    ,Kentwood        ,5.93
Stage Flow Hydrograph=Beaver Creek    ,Kentwood        ,5.913
Stage Flow Hydrograph=Beaver Creek    ,Kentwood        ,5.894
Stage Flow Hydrograph=Beaver Creek    ,Kentwood        ,5.875
Stage Flow Hydrograph=Beaver Creek    ,Kentwood        ,5.855
Stage Flow Hydrograph=Beaver Creek    ,Kentwood        ,5.836
Stage Flow Hydrograph=Beaver Creek    ,Kentwood        ,5.81
Stage Flow Hydrograph=Beaver Creek    ,Kentwood        ,5.798
Stage Flow Hydrograph=Beaver Creek    ,Kentwood        ,5.779
Stage Flow Hydrograph=Beaver Creek    ,Kentwood        ,5.76
Stage Flow Hydrograph=Beaver Creek    ,Kentwood        ,5.741
Stage Flow Hydrograph=Beaver Creek    ,Kentwood        ,5.72
Stage Flow Hydrograph=Beaver Creek    ,Kentwood        ,5.703
Stage Flow Hydrograph=Beaver Creek    ,Kentwood        ,5.685
Stage Flow Hydrograph=Beaver Creek    ,Kentwood        ,5.666
Stage Flow Hydrograph=Beaver Creek    ,Kentwood        ,5.647
Stage Flow Hydrograph=Beaver Creek    ,Kentwood        ,5.628
Stage Flow Hydrograph=Beaver Creek    ,Kentwood        ,5.61
Stage Flow Hydrograph=Beaver Creek    ,Kentwood        ,5.593
Stage Flow Hydrograph=Beaver Creek    ,Kentwood        ,5.576
Stage Flow Hydrograph=Beaver Creek    ,Kentwood        ,5.559
Stage Flow Hydrograph=Beaver Creek    ,Kentwood        ,5.542
Stage Flow Hydrograph=Beaver Creek    ,Kentwood        ,5.525
Stage Flow Hydrograph=Beaver Creek    ,Kentwood        ,5.508
Stage Flow Hydrograph=Beaver Creek    ,Kentwood        ,5.491
Stage Flow Hydrograph=Beaver Creek    ,Kentwood        ,5.474
Stage Flow Hydrograph=Beaver Creek    ,Kentwood        ,5.457
Stage Flow Hydrograph=Beaver Creek    ,Kentwood        ,5.44
Stage Flow Hydrograph=Beaver Creek    ,Kentwood        ,5.425
Stage Flow Hydrograph=Beaver Creek    ,Kentwood        ,5.41
Stage Flow Hydrograph=Beaver Creek    ,Kentwood        ,5.39
Stage Flow Hydrograph=Beaver Creek    ,Kentwood        ,5.37
Stage Flow Hydrograph=Beaver Creek    ,Kentwood        ,5.35
Stage Flow Hydrograph=Beaver Creek    ,Kentwood        ,5.33
Stage Flow Hydrograph=Beaver Creek    ,Kentwood        ,5.31
Stage Flow Hydrograph=Beaver Creek    ,Kentwood        ,5.29
Stage Flow Hydrograph=Beaver Creek    ,Kentwood        ,5.274
Stage Flow Hydrograph=Beaver Creek    ,Kentwood        ,5.258
Stage Flow Hydrograph=Beaver Creek    ,Kentwood        ,5.242
Stage Flow Hydrograph=Beaver Creek    ,Kentwood        ,5.226
Stage Flow Hydrograph=Beaver Creek    ,Kentwood        ,5.21
Stage Flow Hydrograph=Beaver Creek    ,Kentwood        ,5.194
Stage Flow Hydrograph=Beaver Creek    ,Kentwood        ,5.178
Stage Flow Hydrograph=Beaver Creek    ,Kentwood        ,5.162
Stage Flow Hydrograph=Beaver Creek    ,Kentwood        ,5.146
Stage Flow Hydrograph=Beaver Creek    ,Kentwood        ,5.13
Stage Flow Hydrograph=Beaver Creek    ,Kentwood        ,5.113
Stage Flow Hydrograph=Beaver Creek    ,Kentwood        ,5.097
Stage Flow Hydrograph=Beaver Creek    ,Kentwood        ,5.081
Stage Flow Hydrograph=Beaver Creek    ,Kentwood        ,5.065
Stage Flow Hydrograph=Beaver Creek    ,Kentwood        ,5.048
Stage Flow Hydrograph=Beaver Creek    ,Kentwood        ,5.032
Stage Flow Hydrograph=Beaver Creek    ,Kentwood        ,5.016
Stage Flow Hydrograph=Beaver Creek    ,Kentwood        ,5.0
Breach Loc=Beaver Creek    ,Kentwood        ,5.4     ,True,                
Breach Method= 0 
Breach Geom=475,300,210,1,1,False,0.8,,2,2.6
Breach Start=False,220.5,,,True,218.5,3
Breach Progression= 11 
       0       0      .1     .02      .2     .05      .3      .1      .4      .2
      .5      .4      .6      .8      .7      .9      .8     .95      .9     .98
       1       1
Simplified Physical Breach Downcutting= 2 
       0       0       1       1
Simplified Physical Breach Widening= 2 
       0       0       1       1
Starting Notch Depth= 3.402823E+38 
Initial Piping Diameter= 3.402823E+38 
Mass Wasting Options= 0 
Mass Wasting Width= 3.402823E+38 
Mass Wasting Duration= 3.402823E+38 
Mass Wasting Final Bottom Elevation= 3.402823E+38 
Breach Use User Defined Growth Ratio=0
Breach User Defined Growth Ratio=1
Calibration Method= 0 
Calibration Iterations= 20 
Calibration Max Change=0.05
Calibration Tolerance=0.2
Calibration Maximum=1.5
Calibration Minimum=0.5
Calibration Optimization Method= 1 
Calibration Window=,,,
WQ AD Non Conservative
WQ ULTIMATE=-1
WQ Max Comp Step=1HOUR
WQ Output Interval=15MIN
WQ Output Selected Increments= 0 
WQ Output face flow=0
WQ Output face velocity=0
WQ Output face area=0
WQ Output face dispersion=0
WQ Output cell volume=0
WQ Output cell surface area=0
WQ Output cell continuity=0
WQ Output cumulative cell continuity=0
WQ Output face conc=0
WQ Output face dconc_dx=0
WQ Output face courant=0
WQ Output face peclet=0
WQ Output face adv mass=0
WQ Output face disp mass=0
WQ Output cell mass=0
WQ Output cell source sink temp=0
WQ Output nsm pathways=0
WQ Output nsm derived pathways=0
WQ Output MaxMinRange=-1
WQ Daily Max Min Mean=-1
WQ Daily Range=0
WQ Daily Time=0
WQ Create Restart=0
WQ Fixed Restart=0
WQ Restart Simtime=
WQ Restart Date=
WQ Restart Hour=
WQ System Summary=0
WQ Write To DSS=0
WQ Use Fixed Temperature=0
WQ Fixed Temperature=
Sorting and Armoring Iterations= 10 
XS Update Threshold= 0.02 
Bed Roughness Predictor= 0 
Hydraulics Update Threshold= 0.02 
Energy Slope Method= 1 
Volume Change Method= 0 
Sediment Retention Method= 0 
XS Weighting Method= 0 
Number of US Weighted Cross Sections= 1 
Number of DS Weighted Cross Sections= 1 
Upstream XS Weight=0.25
Main XS Weight=0.5
Downstream XS Weight=0.25
Number of DS XS's Weighted with US Boundary= 1 
Upstream Boundary Weight= 1 
Weight of XSs Associated with US Boundary= 0 
Number of US XS's Weighted with DS Boundary= 1 
Downstream Boundary Weight= 0.5 
Weight of XSs Associated with DS Boundary= 0.5 
Sediment Output Level= 4 
Mass or Volume Output= 0 
Output Increment Type= 1 
Profile and TS Output Increment= 10 
XS Output Flag= 0 
XS Output Increment= 10 
Write Gradation File= 0 
Read Gradation Hotstart= 0 
Gradation File Name=
Write HDF5 File= 0 
Write DSS Sediment File= 0 
SV Curve= 0 
Specific Gage Flag= 0 
