Geom Title=Beaver with two storage areas
Program Version=5.00
Viewing Rectangle=-0.1274 , 0.9153 , 1.0859 ,-0.1745 

River Reach=Beaver Creek    ,Kentwood        
Reach XY= 5 
       0.1116468       0.9147431       0.2529593       0.7925637
       0.3737268       0.6130833        0.659477       0.2536967
       0.8465474       0.0901639
Rch Text X Y=0.1315114,0.5657992
Reverse River Text= 0 

Type RM Length L Ch R = 1 ,5.99    ,440,600,400
BEGIN DESCRIPTION:
Upstream Boundary Cross Section
END DESCRIPTION:
XS GIS Cut Line=5
 0.23756161037221.060375969704070.117338649200950.92132628374627
       0.1116468       0.91474310.105954950799050.90815991625373
-0.02931541523950.75520009558714
Node Last Edited Time=Apr/12/2000 11:02:08
#Sta/Elev= 35 
       0     221       7   220.3      36   216.6     131   216.6     233   216.8
     282   216.6     351   216.4     518   216.1     591   213.3     627   213.2
     692     209     709   212.7     719   209.4     738   204.9     751   210.8
     771   212.8     797   213.7     820   211.6     866   214.8     879     214
     899   210.2     932   209.9     948   216.6    1011   218.1    1063   218.7
    1093   219.1    1198   218.5    1283   218.2    1542   218.4    1565   218.1
    1772   218.1    1791   218.4    1831   218.9    1887   220.4    1910   220.8
#Mann= 4 , 1 , 0 
       0      .1       0     518     .14       0     866     .04       0
     948     .14       0
Levee=-1,866,214.8,0,,,0,0
Bank Sta=866,948
XS Rating Curve= 0 ,0
XS HTab Starting El and Incr=210.4,0.53, 20 
XS HTab Horizontal Distribution= 5 , 5 , 5 
Exp/Cntr=0.3,0.1

Type RM Length L Ch R = 1 ,5.875*  ,440,600,400
BEGIN DESCRIPTION:
River Mile 5.875
END DESCRIPTION:
XS GIS Cut Line=5
0.308898243902560.934077104585230.21766915925678 0.8426471864813
0.207986074335660.831447745839780.198302989414530.82024830519826
0.027408117843660.65821206109108
Node Last Edited Time=Apr/12/2000 11:02:08
#Sta/Elev= 73 
       0  219.85     4.9  219.45    25.3  217.38    27.7  217.35    67.6   216.5
      92  216.07   147.4  215.18   163.7  215.18   198.1  215.05   246.6   214.9
     364  214.64   415.3  213.19   440.6  213.11   454.2  212.47   486.2  211.15
   498.2  213.05   505.2  211.43   518.6  209.24   527.7  212.23   541.7   213.3
     560  213.83   576.2  212.85   608.5   214.6   622.1  213.56     643  210.68
   645.9  210.54   659.3  208.23   677.5  207.45   690.5  211.42   697.8  211.66
   705.1  211.31   714.7  212.67   744.1  214.11     748  214.65   820.7  215.82
   852.2  216.16   880.6   216.3   886.6  216.33   895.4  216.39   906.9  216.45
   915.2   216.5   930.7  216.46   962.5  216.38   982.8  216.33   999.6  216.29
  1036.3  216.31    1064  216.36  1098.4   216.1  1121.4  215.87  1130.2  213.71
  1134.4  213.79    1139   213.9  1173.4  214.21  1216.7  216.63  1234.3  213.88
  1234.3  214.28  1260.8  214.29  1269.7  214.25  1358.8  215.08  1367.6  215.18
  1433.1  213.84    1440  213.66  1459.6  215.25  1466.5  215.85  1535.3   216.3
  1555.6  216.05  1575.9  216.15  1698.3  217.24  1720.3  217.58  1744.5  217.93
  1766.4  218.21    1831  219.45  1857.5  219.85
#Mann= 4 , 1 , 0 
       0      .1       0     364     .12       0   608.5     .04       0
     748     .14       0
Bank Sta=608.5,748
XS Rating Curve= 0 ,0
XS HTab Starting El and Incr=207.95,0.6, 20 
XS HTab Horizontal Distribution= 5 , 5 , 5 
Exp/Cntr=0.3,0.1

Type RM Length L Ch R = 1 ,5.76    ,225,400,275
BEGIN DESCRIPTION:
River Mile 5.76
END DESCRIPTION:
XS GIS Cut Line=5
0.369537170381820.790207416380810.308213134289850.74789858617856
0.290866893809940.736226770776110.273520653330030.72455495537366
 0.07097760386880.55087841277835
Node Last Edited Time=Apr/12/2000 11:02:08
#Sta/Elev= 43 
       0   218.7      16   218.1      39   216.4      85   213.6     262     213
     351   214.4     390   210.9     404   206.4     423     205     446   211.7
     459   211.5     472   210.1     489   211.9     541     212     548   212.7
     666   213.9     705   213.9     715   213.9     728   213.9     755   213.9
     791   213.9     814   213.9     833   213.9     906   214.3     945   213.9
     971   213.5     981   209.2     991   209.6    1030   210.2    1079     215
    1099   209.5    1099   210.3    1129   210.3    1139   210.2    1240   211.8
    1250     212    1332     209    1362   213.6    1440   214.5    1463     214
    1486   214.2    1677   217.2    1805   218.9
#Mann= 3 , 1 , 0 
       0      .1       0     351     .04       0     548     .14       0
Levee=0,,,-1,906,214.3,0,0
Bank Sta=351,548
XS Rating Curve= 0 ,0
XS HTab Starting El and Incr=205.5,0.67, 20 
XS HTab Horizontal Distribution= 5 , 5 , 5 
Exp/Cntr=0.3,0.1

Type RM Length L Ch R = 1 ,5.685*  ,225,400,275
BEGIN DESCRIPTION:
River Mile 5.685
END DESCRIPTION:
XS GIS Cut Line=5
0.450857989281260.744504794246950.348259028918720.67250980968093
0.338265128946790.665785185070890.328271228974860.65906056046085
0.126045534198310.49663241378918
Node Last Edited Time=Apr/12/2000 11:02:08
#Sta/Elev= 69 
       0   218.6    26.9  218.05    58.3  217.06    65.6  216.78   142.3  214.16
     143  214.14   335.8  212.56   347.9  211.24   359.3  210.63   368.5  212.57
   440.8  212.24   450.3  212.24   515.8  211.95   590.5   211.9   611.9  209.82
   619.6  207.46     630   206.6     630   204.7   643.6  208.09   649.3  208.03
   651.3  208.05     659  207.54   669.1   208.7   691.1  209.29   699.9  210.35
     704   211.2   760.6  211.25   784.3  211.47   797.7  210.59   815.2  210.88
   818.7  210.94   852.2   211.3   852.2  212.45   856.6  212.51   866.4  212.63
     879  212.79   905.2  213.12   940.2  213.57   962.6  213.85   966.5   213.9
   981.1  213.87  1044.8  213.93    1052  213.94  1089.9  213.72  1115.2   213.5
  1124.9  211.34  1134.7  211.53  1172.6  211.81  1182.7  212.31  1220.2  214.18
  1239.7  211.41  1239.7  211.81    1264   211.8  1268.8  211.82  1278.5   211.8
    1366  212.81  1376.7  212.93  1386.5  213.06  1466.2  211.79  1495.3  214.18
  1537.9  214.55  1571.2  214.86  1593.5  214.69  1615.9  214.87    1683  215.64
    1788  216.89  1801.6  217.08  1906.4  218.42    1926   218.7
#Mann= 4 , 1 , 0 
       0     .09       0   368.5      .1       0   590.5     .04       0
     704      .1       0
Bank Sta=590.5,704
XS Rating Curve= 0 ,0
XS HTab Starting El and Incr=205.2,0.68, 20 
XS HTab Horizontal Distribution= 5 , 5 , 5 
Exp/Cntr=0.3,0.1

Type RM Length L Ch R = 1 ,5.61    ,240,460,190
BEGIN DESCRIPTION:
River Mile 5.61
END DESCRIPTION:
XS GIS Cut Line=5
 0.53116655380830.703092709939870.389525986955110.59832859432168
0.387033853260640.596347085546390.384541719566180.59436557677111
0.182883315638660.44332481887283
Node Last Edited Time=Apr/12/2000 11:02:08
#Sta/Elev= 31 
       0   218.5      82   217.4     200   214.7     472   211.9     489   209.3
     505   208.1     518     212     633   211.4     725   210.2     830   209.4
     837   208.2     837   204.4     843   204.5     856   206.6     860   209.7
     915   209.2     938   209.4     951   207.5     968   207.9    1004   208.7
    1004     211    1115   213.9    1191   213.6    1325   213.4    1404   213.3
    1503     214    1670     215    1811     216    1913   216.8    2028   218.2
    2047   218.5
#Mann= 4 , 1 , 0 
       0     .08       0     518      .1       0     830     .04       0
     860     .06       0
Bank Sta=830,860
XS Rating Curve= 0 ,0
XS HTab Starting El and Incr=204.9,0.68, 20 
XS HTab Horizontal Distribution= 5 , 5 , 5 
Exp/Cntr=0.3,0.1

Type RM Length L Ch R = 6 ,5.5675  ,,,
Node Last Edited Time=Oct/03/2002 08:04:26
Lateral Weir Pos= 3 
Lateral Weir End=                ,                ,        ,Bayou           
Lateral Weir Distance=0
Lateral Weir TW Multiple XS=0
Lateral Weir WD=10
Lateral Weir Coef=2
Lateral Weir WSCriteria=-1 
Lateral Weir Flap Gates= 0 
Lateral Weir Hagers EQN= 0 ,,,,,
Lateral Weir SS=0.05,0.05,
Lateral Weir Type= 0 
Lateral Weir Connection Pos and Dist= 1 ,
Lateral Weir SE= 2 
       0     216     100     216
Lateral Weir Centerline= 0 
LW Culv=1,5,,50,0.01,0.5,1,1,1,210,210, 2 ,Culvert #1  , 0 ,10
      40      40      60      60
LW Culv Bottom n=0.01
LW Div RC= 0 ,False,

Type RM Length L Ch R = 1 ,5.525*  ,240,460,190
BEGIN DESCRIPTION:
River Mile 5.525
END DESCRIPTION:
XS GIS Cut Line=5
0.564068052486370.611233687655960.452867460881490.52395072009254
0.447800122369410.519921652249460.442732783857330.51589258440638
0.236370321731190.35892881727768
Node Last Edited Time=Apr/12/2000 11:02:08
#Sta/Elev= 57 
       0   218.4    13.3  217.04    43.8  215.63    65.8  215.22   160.5  212.89
   179.1  212.58   378.7  212.12   392.4  210.88   405.2  210.33   415.6  212.32
   421.9  212.33   478.9  210.34   482.9  210.93   507.9  210.82   561.2  210.32
   581.7  210.06     666   209.3     672  207.88   685.7  207.05   687.5  206.05
   687.5  204.15   697.8  204.34   705.8  204.83   720.1  207.15   724.9  208.77
     727   210.1   774.7  210.14   783.6  210.21   807.3   210.6   820.6  209.81
   838.1  210.23   875.2  211.08   875.2  212.23   876.8  212.27     941  213.28
   989.4   213.8    1011  213.71  1067.6  213.56    1081  213.54  1132.5  213.15
  1202.6  212.75  1205.5  212.75  1278.4  212.71  1286.8  212.77  1355.3  213.59
  1388.7  213.82  1438.9  214.15  1486.5  214.53  1553.7  214.68  1560.5  214.71
  1658.7  215.24  1705.6  215.56  1763.7  215.97  1810.6  216.28  1928.9   217.3
  1945.6  217.48  1948.5  220.15
#Mann= 5 , 1 , 0 
       0     .07       0   179.1     .09       0   415.6      .1       0
     666     .04       0     727     .06       0
Bank Sta=666,727
XS Rating Curve= 0 ,0
XS HTab Starting El and Incr=204.65,0.77, 20 
XS HTab Horizontal Distribution= 5 , 5 , 5 
Exp/Cntr=0.3,0.1

Type RM Length L Ch R = 1 ,5.44    ,270,170,500
BEGIN DESCRIPTION:
River Mile 5.44
END DESCRIPTION:
XS GIS Cut Line=5
0.599612342449310.515887339542970.516208934807870.44957284586341
0.508566391478180.443496218952530.500923848148490.43741959204165
0.292364315112780.27135656398637
Node Last Edited Time=Apr/12/2000 11:02:08
#Sta/Elev= 31 
       0   218.3      10   215.8      33   213.5     135   210.7     318   212.7
     361   209.1     364   210.3     423   210.1     502   209.2     512   206.7
     535   205.8     538   203.9     564   204.4     591   208.8     594   210.5
     643     211     748   213.5     814   213.9     886   213.6     958   213.5
    1011   212.8    1083   212.1    1161   212.1    1240   213.4    1326     214
    1375   214.5    1444   214.4    1552   214.8    1660   215.5    1847   216.5
    1850   221.8
#Mann= 4 , 1 , 0 
       0     .06       0     135      .1       0     502     .04       0
     594     .06       0
Bank Sta=502,594
XS Rating Curve= 0 ,0
XS HTab Starting El and Incr=204.4,0.87, 20 
XS HTab Horizontal Distribution= 5 , 5 , 5 
Exp/Cntr=0.5,0.3

Type RM Length L Ch R = 1 ,5.41    ,100,100,100
BEGIN DESCRIPTION:
Upstream of bridge embankment
END DESCRIPTION:
XS GIS Cut Line=5
0.622152513025690.487709207964880.54738850219174 0.4282639447063
0.531023490931420.41525203708192 0.51465847967110.40224012945755
0.31749440825541 0.2399792004575
Node Last Edited Time=Apr/12/2000 11:02:08
#Sta/Elev= 66 
       0  217.55      12  216.05    39.5  214.32    76.4  213.13   161.5  211.17
   180.4  211.04   244.8  211.13   315.2     212     355   212.5     450   213.4
   456.6   212.9   459.8   211.6   466.4   210.1   469.7   209.3   476.2   208.9
   479.5   208.6   486.1   208.7   489.4   207.9   495.9   208.8   499.2   208.6
   505.8   207.8   509.1   207.6   515.6   206.9   518.9   204.3   525.5   203.6
   528.7   203.4   535.3   203.1   538.6   202.9   545.1     203   548.4   202.7
     555   203.1   561.6   204.4   564.8   203.8   571.4     203   574.7   202.9
   581.2   203.6   584.5     204   591.1   204.7   594.4   205.8   600.9   206.5
   604.2   207.5   610.8     208   614.1   208.7   620.6     209   623.9   209.3
   630.5   209.6   633.7   211.3   640.3   212.2   643.6   213.1     647   213.5
     670     212     748     213     814   213.4     886   213.1     958   213.1
    1011   212.3    1083   211.6    1161   211.6    1240   212.9    1326   213.5
    1375     214    1444   213.9    1552   214.3    1660     215    1847     216
    1850   220.5
#Mann= 4 , 1 , 0 
       0     .15       0   161.5     .25       0     450     .04       0
     647     .15       0
#XS Ineff= 2 , 0 
             420   216.7     677           216.7
Permanent Ineff=
       F       F
Bank Sta=450,647
XS Rating Curve= 0 ,0
XS HTab Starting El and Incr=203.2,0.87, 20 
XS HTab Horizontal Distribution= 5 , 5 , 5 
Exp/Cntr=0.5,0.3

Type RM Length L Ch R = 1 ,5.39    ,320,500,580
BEGIN DESCRIPTION:
Downstream of bridge embankment
END DESCRIPTION:
XS GIS Cut Line=5
 0.63536257152760.471094983335110.560598560693650.41164972007653
0.544233549433320.39863781245216  0.5278685381730.38562590482778
0.335994330636890.22563015856664
Node Last Edited Time=Apr/12/2000 11:02:08
#Sta/Elev= 63 
       0   216.8      89   213.6     210   211.2     285   210.8     367   211.9
     443   210.8     450   213.4   456.6   212.9   459.8   211.6   466.4   210.1
   469.7   209.3   476.2   208.9   479.5   208.6   486.1   208.7   489.4   207.9
   495.9   208.8   499.2   208.6   505.8   207.8   509.1   207.6   515.6   206.9
   518.9   204.3   525.5   203.6   528.7   203.4   535.3   203.1   538.6   202.9
   545.1     203   548.4   202.7     555   203.1   561.6   204.4   564.8   203.8
   571.4     203   574.7   202.9   581.2   203.6   584.5     204   591.1   204.7
   594.4   205.8   600.9   206.5   604.2   207.5   610.8     208   614.1   208.7
   620.6     209   623.9   209.3   630.5   209.6   633.7   211.3   640.3   212.2
   643.6   213.1     647   213.5     692   211.9     824   212.8     896   213.3
     961   213.2    1040     212    1093   211.7    1116     210    1243   211.1
    1309   210.2    1371   211.5    1421   211.7    1486   213.3    1558   213.7
    1660   214.7    1723   215.4    1824   217.1
#Mann= 6 , 1 , 0 
       0     .15       0      89      .2       0     450     .04       0
     647      .2       0     824     .15       0    1309      .2       0
#XS Ineff= 2 , 0 
             420     215     677             215
Permanent Ineff=
       F       F
Bank Sta=450,647
XS Rating Curve= 0 ,0
XS HTab Starting El and Incr=203.2,0.7, 20 
XS HTab Horizontal Distribution= 5 , 5 , 5 
Exp/Cntr=0.5,0.3

Type RM Length L Ch R = 1 ,5.29    ,410,416.5,410
BEGIN DESCRIPTION:
River Mile 5.29
END DESCRIPTION:
XS GIS Cut Line=5
0.65198554576357 0.34872393614310.614935824839190.31926550568385
0.610283841942850.315566689303320.605631859046520.31186787292278
0.383636089311490.10988201487178
Node Last Edited Time=Apr/12/2000 11:02:08
#Sta/Elev= 32 
       0   216.2       7   215.1      98   208.5     141   208.5     161   207.2
     190   207.2     197     209     223   209.6     246   208.8     262   206.9
     262   203.8     266   202.8     272     207     279   209.7     328     209
     367   209.3     427   209.7     443   209.3     482     209     604   209.8
     676   210.5     764   209.1     781   207.1     787   206.1     853   209.8
     929   211.2    1007   213.1    1024   214.2    1273   214.3    1434   214.3
    1598   214.7    1693   216.4
#Mann= 4 , 1 , 0 
       0     .04       0     161     .06       0     223     .04       0
     279     .06       0
Levee=-1,223,209.6,-1,676,210.5,0,0
Bank Sta=223,279
XS Rating Curve= 0 ,0
XS HTab Starting El and Incr=203.3,0.65, 20 
XS HTab Horizontal Distribution= 5 , 5 , 5 
Exp/Cntr=0.3,0.1

Type RM Length L Ch R = 1 ,5.21*   ,410,416.5,410
BEGIN DESCRIPTION:
River Mile 5.21
END DESCRIPTION:
XS GIS Cut Line=5
0.698935620460280.280394625623790.670507202514410.25208928654497
0.666525781317880.247534811505080.662544360121350.24298033646519
 0.5987045996699 0.1808768311314
Node Last Edited Time=Apr/12/2000 11:02:08
#Sta/Elev= 38 
       0  216.15     5.9  215.41    83.1  209.71   119.5  208.57   136.5  207.39
     161  206.62     167  207.34     189  206.95   211.7  205.71   221.4  204.77
   227.5  203.79   227.5  202.24   231.5  201.35   236.9  204.06   236.9  206.01
   238.2  206.57     246  208.95   292.5  208.94   297.8  208.67   308.6  208.24
   327.6  209.01     339  209.06   379.8  209.23   383.6  209.29   402.4  208.96
   419.3  208.41   427.2  208.22   435.8  207.29   442.4  207.17   451.9  207.13
   460.6  208.01   461.4   208.1   513.6  207.41   525.9   207.1   542.1  207.85
   589.5   209.1     598  209.34   665.6  209.84
#Mann= 5 , 1 , 0 
       0     .07       0   136.5     .08       0     189     .04       0
     246     .08       0   996.6     .06       0
Levee=0,,,-1,383.6,209.29,0,0
Bank Sta=189,246
XS Rating Curve= 0 ,0
XS HTab Starting El and Incr=201.85,0.71, 20 
XS HTab Horizontal Distribution= 5 , 5 , 5 
Exp/Cntr=0.3,0.1

Type RM Length L Ch R = 1 ,5.13    ,310,355,340
BEGIN DESCRIPTION:
River Mile 5.13
END DESCRIPTION:
XS GIS Cut Line=5
0.758789653397810.218754512522070.737136310048240.19398456055072
0.733085039357030.189350182439950.729033768665820.18471580432918
0.62200210500046 0.0703370013297
Node Last Edited Time=Apr/12/2000 11:02:08
#Sta/Elev= 23 
       0   216.1     155   204.3     187   201.9     197   199.9     203   201.9
     203   205.8     213   208.2     262   208.8     279   207.4     299   208.8
     354   208.9     358     209     404   207.2     413   205.4     420   205.2
     430   205.2     440   207.2     495   205.5     508   204.8     525   206.2
     584   208.8     679   209.3     951   210.2
#Mann= 4 , 1 , 0 
       0      .1       0     155     .04       0     213      .1       0
    1004     .06       0
Levee=0,,,-1,358,209,0,0
Bank Sta=155,213
XS Rating Curve= 0 ,0
XS HTab Starting El and Incr=200.4,0.79, 20 
XS HTab Horizontal Distribution= 5 , 5 , 5 
Exp/Cntr=0.3,0.1

Type RM Length L Ch R = 1 ,5.065*  ,310,355,340
BEGIN DESCRIPTION:
River Mile 5.065
END DESCRIPTION:
XS GIS Cut Line=5
0.834519896271170.190895006580190.796172523694030.14702822066963
0.789816219678520.13975704121998  0.7834599156630.13248586177032
0.56077482075809-0.1017071419431
Node Last Edited Time=Apr/12/2000 11:02:08
#Sta/Elev= 68 
       0  214.45    11.1  213.86      39  212.26    41.1  211.82   141.4  209.56
   173.5  208.02   274.5  205.05   292.9  203.86   297.1  201.55   299.3  201.33
     307   199.9   312.8  200.76   316.3  202.12   328.9  203.41   328.9  205.36
   365.5   208.6   412.9  208.53   417.3  208.31   429.3  206.24   433.9  205.81
   441.1  203.43   447.3  206.25   448.6  206.36   487.7  208.09   501.8  208.05
   505.7  208.08   550.1  207.01   558.8  206.08   565.6  205.95   566.4  205.95
   575.3  205.82   584.9  206.68   587.1  206.61   624.4  205.92   638.1  205.98
   644.1  205.93   650.7  205.84   667.1  206.76   681.4  207.28   695.9  207.66
   722.8  207.77   724.1  207.78   739.4  207.54   763.2  208.11     787  209.07
     816  209.31   919.6  210.04   970.4  209.81   998.3  209.75  1055.3  209.77
    1076   209.5  1078.9  209.59  1096.7   209.9  1107.9  210.14  1130.1  210.42
  1225.1  210.56  1358.3  211.08  1372.2  211.13  1418.8  211.28  1426.1  210.55
  1442.6  211.38  1472.3  211.49  1646.7  211.48  1669.5  211.47  1745.1  211.67
  1796.2  212.21  1868.3  213.44    1888   214.2
#Mann= 4 , 1 , 0 
       0      .1       0   274.5     .04       0   365.5      .1       0
  1130.1     .08       0
Levee=0,,,-1,365.5,208.6,0,0
Bank Sta=274.5,365.5
XS Rating Curve= 0 ,0
XS HTab Starting El and Incr=200.4,0.7, 20 
XS HTab Horizontal Distribution= 5 , 5 , 5 
Exp/Cntr=0.3,0.1

Type RM Length L Ch R = 1 ,5.0     ,0,0,0
BEGIN DESCRIPTION:
Downstream Boundary Cross Section
END DESCRIPTION:
XS GIS Cut Line=5
0.91025013914453 0.16303550063830.855208737339830.10007188078854
       0.8465474       0.09016390.837886062660170.08025591921146
0.62825775032903-0.1508560664662
Node Last Edited Time=Apr/12/2000 11:02:08
#Sta/Elev= 43 
       0   212.8      16   212.1      56   210.1      59   209.3     203   209.1
     249   207.4     394   205.8     407   205.2     410     201     417   199.9
     427   201.1     433   203.5     518     209     568   208.2     584   203.9
     591   198.6     597   203.8     636   207.3     712   206.7     732   206.1
     768   205.9     787   206.7     823   207.7     837   207.8     863   206.8
     879   206.2     902   207.2     925     209    1053   210.5    1102   209.9
    1129   209.7    1184   209.6    1204     209    1224   208.8    1348   208.6
    1490   209.1    1535   209.2    1542   207.7    1558   209.3    1755   209.8
    1850     210    1969   212.2    1988   213.4
#Mann= 3 , 0 , 0 
       0      .1       0     394     .04       0     518      .1       0
Levee=0,,,-1,518,209,0,0
Bank Sta=394,518
XS Rating Curve= 0 ,0
XS HTab Starting El and Incr=200.4,0.65, 20 
XS HTab Horizontal Distribution= 5 , 5 , 5 
Exp/Cntr=0.3,0.1

Storage Area=Bayou           ,-0.0153481,0.3718376
Storage Area Surface Line= 19 
      -0.1063281       0.3037865                
      -0.0600533       0.2520676                
      -0.0192227       0.2248472                
       0.0406623       0.2030708                
       0.1032693       0.2003488                
       0.1577102        0.213959                
0.205492128713470.23477155361847                
 0.22686119474560.25744892981583                
       0.2121511       0.3255628                
       0.2094291       0.3609494                
       0.1767645       0.4017801                
        0.141378       0.4371667                
        0.084215       0.4671091                
       0.0297741       0.4943296                
      -0.0192227       0.4943296                
      -0.0736635       0.4779973                
      -0.1078976       0.4344446                
      -0.1172163       0.3663935                
      -0.1063281       0.3037865                
Storage Area Type= 0 
Storage Area Area=200
Storage Area Min Elev=200
Storage Area Is2D=0
Storage Area Point Generation Data=,,,
Storage Area 2D Points= 0 
Storage Area 2D PointsPerimeterTime=23Jun2015 15:03:11
Storage Area Mannings=0.06
2D Cell Volume Filter Tolerance=0.01
2D Face Profile Filter Tolerance=0.01
2D Face Area Elevation Profile Filter Tolerance=0.01
2D Face Area Elevation Conveyance Ratio=0.02

Storage Area=Ramden          ,0.2356744,0.0399932
Storage Area Surface Line= 17 
       0.2046129        0.148007                
       0.1436924       0.1319753                
       0.0795654       0.0902928                
        0.057121       0.0165468                
       0.0763591      -0.0571992                
       0.1244543      -0.0828499                
       0.2014066      -0.0956753                
       0.2943907      -0.0860563                
       0.3456922      -0.0604055                
        0.380962      -0.0219294                
       0.3841684       0.0325785                
       0.3745493       0.0806737                
       0.3424859       0.1127372                
       0.3008034       0.1415943                
0.260877259041630.16019787420025                
0.242560916728380.15714515048137                
       0.2046129        0.148007                
Storage Area Type= 0 
Storage Area Area=200
Storage Area Min Elev=199
Storage Area Is2D=0
Storage Area Point Generation Data=,,,
Storage Area 2D Points= 0 
Storage Area 2D PointsPerimeterTime=23Jun2015 15:03:14
Storage Area Mannings=0.06
2D Cell Volume Filter Tolerance=0.01
2D Face Profile Filter Tolerance=0.01
2D Face Area Elevation Profile Filter Tolerance=0.01
2D Face Area Elevation Conveyance Ratio=0.02

Connection=Clv Bayou-Ramden,0.2157784,0.2024772
Connection Desc=
Connection Line=2
          0.2518          0.2056          0.1643          0.1775
Connection Last Edited Time=Jun/23/2015 15:13:07
Connection Up SA=Bayou           
Connection Dn SA=Ramden          
Conn Routing Type= 3 
Conn Use RC Family=False
Conn OverFlow Method 2D=False
Conn Weir WD=10
Conn Weir Coef=2
Conn Weir Is Ogee= 0 
Conn Simple Spill Pos Coef=0.05
Conn Simple Spill Neg Coef=0.05
Conn Weir SE= 2 
       0     210     100     210
Connection Culv=2,6,20,100,0.014,0.5,1,8,1,200,200, 1 ,Culvert #1  , 0 ,
      50      50
Conn Culv Bottom n=0.014
Conn HTab HWMax=225
Conn HTab TWMax=225

LCMann Time=Dec/30/1899 00:00:00
LCMann Region Time=Dec/30/1899 00:00:00
LCMann Table=0
Chan Stop Cuts=-1 



Use User Specified Reach Order=0
User Specified Reach Order=Beaver Creek    ,Kentwood        
GIS Ratio Cuts To Invert=-1
GIS Limit At Bridges=0
Composite Channel Slope=5
