Geom Title=Green River with Diversion
Program Version=4.10
Viewing Rectangle= 0.195177760869366 , 0.922298232496061 , 0.935634227882549 , 0.117552911164501 

Junct Name=HillsHarney     
Junct Desc=, 0 , 0 ,-1 ,0
Junct X Y & Text X Y=0.4732788,0.4174845,0.4794183,0.4394975
Up River,Reach=Green           ,1               
Dn River,Reach=Green           ,2               
Dn River,Reach=Diversion Canal ,1               
Junc L&A=143.85,
Junc L&A=10,

River Reach=Green           ,1               
Reach XY= 89 
       0.8170927       0.8019169       0.7995208       0.8306709
        0.793131       0.8338658       0.7819489       0.8338658
       0.7691693       0.8386581       0.7531949        0.841853
       0.7436102       0.8386581       0.7292332       0.8290735
       0.7148562       0.8115016        0.706869       0.7971246
       0.6956869       0.7811502       0.6829073       0.7667732
        0.678115       0.7635783       0.6669329       0.7635783
       0.6461661       0.7715655       0.6269968       0.7763578
       0.6142173       0.7747604       0.6078275       0.7747604
       0.6014377       0.7763578       0.5902556       0.7715655
       0.5822684       0.7699681       0.5710863       0.7699681
       0.5678914       0.7635783       0.5694888       0.7587859
        0.563099       0.7523962       0.5535144       0.7492013
       0.5439297       0.7492013       0.5391374       0.7476038
       0.5311502       0.7460064       0.5231629       0.7460064
       0.5167732       0.7428115       0.5039936       0.7380192
       0.4944089       0.7332268       0.4880192       0.7220447
       0.4832268       0.7188498       0.4768371       0.7252396
       0.4688498       0.7284345       0.4608626       0.7220447
       0.4576677        0.715655       0.4576677       0.7108626
       0.4608626       0.7060703       0.4640575       0.6964856
       0.4688498       0.6900958       0.4704473       0.6837061
       0.4736422       0.6789137       0.4704473       0.6709265
        0.465655       0.6693291       0.4688498       0.6629393
       0.4688498        0.658147       0.4608626       0.6597444
       0.4464856       0.6517572       0.4464856       0.6325879
       0.4544728       0.6261981       0.4672524       0.6198083
       0.4816294       0.6214058       0.4928115       0.6246006
       0.5087859       0.6261981        0.523518       0.6211677
0.524648291582660.62055927447535       0.5327476       0.6134185
        0.534345       0.6038339       0.5311502       0.5894569
       0.5263578       0.5798722       0.5215655       0.5782748
       0.5167732       0.5654952       0.5135783       0.5495208
       0.5087859       0.5383387       0.5071885       0.5319489
       0.5007987       0.5335463       0.4928115       0.5367412
       0.4848243       0.5303514       0.4736422       0.5319489
       0.4592652        0.528754       0.4448882       0.5207668
       0.4416933        0.514377       0.4416933       0.5047923
       0.4464856       0.4952077       0.4496805       0.4872204
       0.4480831        0.485623       0.4448882       0.4792332
       0.4416933       0.4792332       0.4400958       0.4696486
       0.4432907       0.4648562       0.4480831       0.4584665
       0.4624601        0.442492       0.4672524       0.4313099
       0.4720447       0.4217252       0.4730006       0.4191161
0.473278814018320.41748453729386
Rch Text X Y=0.743699,0.7567296
Reverse River Text=-1 

Type RM Length L Ch R = 1 ,605400  ,102.18,102.18,102.18
XS GIS Cut Line=5
0.815839402470160.801150995469690.816195895989760.80136885275831
       0.8170927       0.80191690.817989504010250.80246494724169
0.818291409527650.80264944517455
Node Last Edited Time=May/18/2003 09:24:56
#Sta/Elev= 27 
       0      42      .1   32.76      22   26.96      32   26.26      42   22.66
      52   19.76      59   19.16      66   19.06      73   19.26      80   19.26
      87   18.46      94   18.26     101   18.26     108   18.56     115   18.86
     122   19.36     129   20.16     136   20.36     143   22.06     156   22.46
     163   22.26     173   23.96     183   25.46     193   26.16     203   27.76
     220   32.76   220.1      42
#Mann= 3 , 0 , 0 
       0     .15       0      32     .05       0     193     .15       0
Bank Sta=32,193
XS Rating Curve= 0 ,0
XS HTab Starting El and Incr=19.26,0.2, 100 
Exp/Cntr=0.3,0.1

Type RM Length L Ch R = 1 ,605387.*,102.18,102.18,102.18
XS GIS Cut Line=5
 0.80892600861250.798489586367460.815626972738740.80258462258955
0.816397054443190.803055228373170.81716713614764 0.8035258341568
0.844214077432820.82005453094921
Node Last Edited Time=May/19/2003 17:02:41
#Sta/Elev= 48 
       0      44    1.88    34.9     2.6   34.06  260.39   30.84  338.51   28.51
  413.53   27.43   468.7   27.07   598.9    26.2   601.5   26.05  610.45   22.91
   619.4    20.3  625.67   19.54  629.25   19.33  631.94   19.27   638.2   19.36
  644.47   19.31  650.73   18.65     657   18.44  662.25   18.44  668.15   18.77
  674.04    19.1  679.94   19.58  685.84   20.28  691.73   20.53  697.63   21.91
  705.56   22.26  708.58   22.42  714.48   22.42   722.9    23.9  731.33   25.24
  739.75   25.97     770   26.16  870.85    26.8 1047.32   27.53 1249.01    28.3
 1551.55   28.58 1635.63   28.88 1828.87    29.8 1980.13   30.67 2421.33   32.25
 2559.99    32.6 2635.62   32.28  2812.1   32.34 3013.79   33.21 3089.42    33.9
 3158.62   34.53 3165.05   39.55 3167.57      44
#Mann= 3 , 0 , 0 
       0     .15       0   601.5     .05       0  739.75     .15       0
Bank Sta=601.5,739.75
XS Rating Curve= 0 ,0
XS HTab Starting El and Incr=19.44,1, 100 
Exp/Cntr=0.3,0.1

Type RM Length L Ch R = 1 ,605375.*,102.18,102.18,102.18
XS GIS Cut Line=5
0.802012614754850.795828177265240.815058049487720.80380039242079
0.815701408886380.804193556746350.816344768285030.80458672107191
0.863202131838850.84676026099209
Node Last Edited Time=May/19/2003 17:02:41
#Sta/Elev= 48 
       0      46    3.66   37.05    5.07   35.37  506.93   32.56     659   29.01
  805.06    27.9  912.47   27.38 1165.93   26.13    1171   25.83  1178.9   23.16
 1186.81   20.84 1192.34   19.93  1195.5   19.55 1197.87   19.48  1203.4   19.47
 1208.94   19.36 1214.47   18.84    1220   18.63  1223.5   18.63 1228.29   18.98
 1233.09   19.34 1237.88   19.79 1242.67    20.4 1247.47    20.7 1252.26   21.76
 1258.71   22.17 1261.16   22.38 1265.96   22.57  1272.8   23.84 1279.65   25.01
  1286.5   25.78 1346.67   26.11 1547.23    27.2 1898.22   28.35 2299.34   29.53
 2901.03   29.55 3068.25   30.01 3452.58    31.2 3753.42   32.45 4630.89   34.17
 4906.66    34.4 5057.08   33.52 5408.07   33.06 5809.19   34.14 5959.61   35.27
 6097.23   36.29 6110.04    39.7 6115.05      46
#Mann= 3 , 0 , 0 
       0     .15       0    1171     .05       0  1286.5     .15       0
Bank Sta=1171,1286.5
XS Rating Curve= 0 ,0
XS HTab Starting El and Incr=19.63,1, 100 
Exp/Cntr=0.3,0.1

Type RM Length L Ch R = 1 ,605362.*,102.18,102.18,102.18
XS GIS Cut Line=5
0.795099220897190.793166768163020.814489126236710.80501616225202
0.815005763329560.805331885119520.815522400422420.80564760798702
0.877745587933930.87661842771114
Node Last Edited Time=May/19/2003 17:02:41
#Sta/Elev= 48 
       0      48    5.44   39.19    7.53   36.69  753.46   34.28   979.5    29.5
 1196.59   28.38 1356.23   27.69 1732.97   26.07  1740.5   25.61 1747.35   23.41
 1754.21   21.38 1759.01   20.31 1761.75   19.78 1763.81   19.69  1768.6   19.57
  1773.4    19.4  1778.2   19.03    1783   18.82 1784.75   18.82 1788.44    19.2
 1792.13   19.58 1795.82   20.01 1799.51   20.52  1803.2   20.87 1806.89    21.6
 1811.85   22.09 1813.74   22.34 1817.43   22.73 1822.71   23.78 1827.98   24.79
 1833.25   25.59 1923.33   26.05 2223.62    27.6 2749.11   29.18 3349.67   30.77
 4250.52   30.53 4500.88   31.13 5076.29    32.6 5526.71   34.22 6840.44   36.08
 7253.33    36.2 7478.54   34.76 8004.03   33.78  8604.6   35.07 8829.81   36.63
 9035.85   38.06 9055.02   39.85 9062.53      48
#Mann= 3 , 0 , 0 
       0     .15       0  1740.5     .05       0 1833.25     .15       0
Bank Sta=1740.5,1833.25
XS Rating Curve= 0 ,0
XS HTab Starting El and Incr=19.82,1, 100 
Exp/Cntr=0.3,0.1

Type RM Length L Ch R = 1 ,605350  ,114.46,114.46,114.46
BEGIN DESCRIPTION:
Source:  Hillsborough County SWMM Model
END DESCRIPTION:
XS GIS Cut Line=5
0.788438535814740.790099113279410.813920202985690.80623193208326
0.81431011777275 0.80647021349270.814700032559820.80670849490213
0.885953146261010.91029797191909
Node Last Edited Time=May/18/2003 09:27:34
#Sta/Elev= 26 
       0      50      10      38    1000      36    1300      30    1800      28
    2300      26    2310    25.4    2328      20    2346      19    2365      22
    2380    25.4    2500      26    2900      28    3600      30    4400      32
    5600    31.5    6700      34    7300      36    9050      38    9600      38
    9900      36   10600    34.5   11400      36   11700      38   12000      40
   12010      50
#Mann= 3 , 0 , 0 
       0     .15       0    2310     .05       0    2380     .15       0
Bank Sta=2310,2380
XS Rating Curve= 0 ,0
XS HTab Starting El and Incr=20,0.2, 100 
Exp/Cntr=0.3,0.1

Type RM Length L Ch R = 1 ,605345.*,114.46,114.46,114.46
XS GIS Cut Line=5
0.788052213846980.791223127326920.813140954702680.80750706483098
0.813530869489740.807745346240420.813920784276810.80798362764985
0.883560303358110.91024672562895
Node Last Edited Time=May/19/2003 17:02:41
#Sta/Elev= 41 
       0      50    9.92    38.1   10.91      38  981.82   36.02  991.74   35.98
 1289.26   30.03 1309.09   29.93 1785.12   28.01    1800   27.95 2236.36   26.16
 2280.99   25.96 2290.91    25.4 2308.91      20 2326.91      19 2345.91      22
 2360.91    25.4 2396.71   25.62 2478.99   26.02 2872.61   27.91 3351.51   29.26
 3561.45   29.87 4067.61   31.17 4348.68    31.9 4724.03   31.86 5529.54   31.64
  6215.9   33.17 6611.99   33.96 7051.35   35.26 7202.42   35.74 8006.15   36.67
  8924.5   37.52 9438.34   37.45 9465.72   37.47 9760.94   35.8310035.09   35.46
10449.77   34.68   11237   36.1211532.22   37.9711825.34   39.8111827.43   40.01
11837.27      50
#Mann= 3 , 0 , 0 
       0     .15       0 2290.91     .05       0 2360.91     .15       0
Bank Sta=2290.91,2360.91
XS Rating Curve= 0 ,0
XS HTab Starting El and Incr=20,1, 100 
Exp/Cntr=0.3,0.1

Type RM Length L Ch R = 1 ,605340.*,114.46,114.46,114.46
XS GIS Cut Line=5
0.787670258831070.792347578074630.812361706419670.80878219757871
0.812751621206730.809020478988140.813141535993790.80925876039757
0.881165667846470.91019349183412
Node Last Edited Time=May/19/2003 17:02:41
#Sta/Elev= 41 
       0      50    9.83    38.2   10.82      38  973.64   36.02  983.47   35.97
 1278.51   30.07 1298.18   29.93 1770.25   28.01    1785   27.95 2217.73   26.15
 2261.98   25.91 2271.82    25.4 2289.82      20 2307.82      19 2326.82      22
 2341.82    25.4 2377.04   25.66 2457.99   26.03 2845.23   27.82 3316.36   29.14
 3522.89   29.74 4020.85   31.05 4297.36   31.79 4666.63   31.87 5459.07   31.79
 6134.31   33.25 6523.98   33.91 6956.22   35.04 7104.83   35.48 7895.53    36.4
 8798.99   37.04 9304.51   36.91 9331.44   36.94 9621.87   35.67 9891.58   35.51
10299.54   34.8611074.01   36.2411364.44   37.94 11652.8   39.6211654.86   40.02
11664.55      50
#Mann= 3 , 0 , 0 
       0     .15       0 2271.82     .05       0 2341.82     .15       0
Bank Sta=2271.82,2341.82
XS Rating Curve= 0 ,0
XS HTab Starting El and Incr=20,1, 100 
Exp/Cntr=0.3,0.1

Type RM Length L Ch R = 1 ,605336.*,114.46,114.46,114.46
XS GIS Cut Line=5
0.787292777974270.793472621889880.811582458136660.81005733032643
0.811972372923720.810295611735860.812362287710780.81053389314529
0.878769112975930.91013786588411
Node Last Edited Time=May/19/2003 17:02:41
#Sta/Elev= 41 
       0      50    9.75    38.3   10.73      38  965.45   36.01  975.21   35.95
 1267.77    30.1 1287.27   29.94 1755.37   28.02    1770   27.96 2199.09   26.13
 2242.98   25.87 2252.73    25.4 2270.73      20 2288.73      19 2307.73      22
 2322.73    25.4 2357.37    25.7 2436.98   26.05 2817.84   27.73 3281.21   29.01
 3484.34   29.61 3974.09   30.94 4246.05   31.69 4609.23   31.88 5388.61   31.93
 6052.72   33.33 6435.96   33.87 6861.08   34.81 7007.25   35.22 7784.92   36.13
 8673.49   36.56 9170.68   36.36 9197.17   36.41 9482.81    35.5 9748.07   35.57
 10149.3   35.0410911.01   36.3711196.66   37.9111480.27   39.44 11482.3   40.03
11491.82      50
#Mann= 3 , 0 , 0 
       0     .15       0 2252.73     .05       0 2322.73     .15       0
Bank Sta=2252.73,2322.73
XS Rating Curve= 0 ,0
XS HTab Starting El and Incr=20,1, 100 
Exp/Cntr=0.3,0.1

Type RM Length L Ch R = 1 ,605331.*,114.46,114.46,114.46
XS GIS Cut Line=5
 0.78691986901140.794598419886530.810803209853650.81133246307415
0.811193124640710.811570744483580.811583039427770.81180902589301
0.876370606875180.91007981808248
Node Last Edited Time=May/19/2003 17:02:41
#Sta/Elev= 41 
       0      50    9.67    38.4   10.64      38  957.27   36.01  966.94   35.93
 1257.02   30.13 1276.36   29.95  1740.5   28.02    1755   27.96 2180.45   26.11
 2223.97   25.82 2233.64    25.4 2251.64      20 2269.64      19 2288.64      22
 2303.64    25.4  2337.7   25.73 2415.98   26.06 2790.45   27.64 3246.06   28.88
 3445.78   29.49 3927.33   30.82 4194.73   31.58 4551.82    31.9 5318.15   32.07
 5971.13   33.42 6347.95   33.83 6765.95   34.58 6909.66   34.97  7674.3   35.87
 8547.99   36.08 9036.84   35.82 9062.89   35.88 9343.74   35.33 9604.56   35.62
 9999.07   35.2110748.02   36.4911028.87   37.8811307.74   39.2611309.73   40.04
11319.09      50
#Mann= 3 , 0 , 0 
       0     .15       0 2233.64     .05       0 2303.64     .15       0
Bank Sta=2233.64,2303.64
XS Rating Curve= 0 ,0
XS HTab Starting El and Incr=20,1, 100 
Exp/Cntr=0.3,0.1

Type RM Length L Ch R = 1 ,605327.*,114.46,114.46,114.46
XS GIS Cut Line=5
0.786643074216390.795598722909730.810023961570640.81260759582187
 0.8104138763577 0.81284587723130.810803791144760.81308415864073
0.873970093218040.91001921484766
Node Last Edited Time=May/19/2003 17:02:41
#Sta/Elev= 41 
       0      50    9.59    38.5   10.55      38  949.09   36.01  958.68   35.92
 1246.28   30.17 1265.45   29.96 1725.62   28.03    1740   27.97 2161.82    26.1
 2204.96   25.78 2214.55    25.4 2232.55      20 2250.55      19 2269.55      22
 2284.55    25.4 2318.03   25.77 2394.97   26.08 2763.07   27.54 3210.91   28.76
 3407.23   29.36 3880.57    30.7 4143.41   31.48 4494.42   31.91 5247.69   32.22
 5889.54    33.5 6259.94   33.78 6670.81   34.36 6812.08   34.71 7563.69    35.6
 8422.48    35.6 8903.01   35.27 8928.61   35.36 9204.68   35.16 9461.06   35.67
 9848.84   35.3910585.02   36.6110861.09   37.85 11135.2   39.0811137.16   40.05
11146.36      50
#Mann= 3 , 0 , 0 
       0     .15       0 2214.55     .05       0 2284.55     .15       0
Bank Sta=2214.55,2284.55
XS Rating Curve= 0 ,0
XS HTab Starting El and Incr=20,1, 100 
Exp/Cntr=0.3,0.1

Type RM Length L Ch R = 1 ,605322.*,114.46,114.46,114.46
XS GIS Cut Line=5
0.786418802116190.796545269893160.809244713287630.81388272856959
0.809634628074690.814121009979020.810024542861750.81435929138845
0.871567567596280.90995613347422
Node Last Edited Time=May/19/2003 17:02:41
#Sta/Elev= 41 
       0      50     9.5    38.6   10.45      38  940.91   36.01  950.41    35.9
 1235.54    30.2 1254.55   29.96 1710.74   28.03    1725   27.97 2143.18   26.08
 2185.95   25.73 2195.45    25.4 2213.45      20 2231.45      19 2250.45      22
 2265.45    25.4 2298.36   25.81 2373.97   26.09 2735.68   27.45 3175.76   28.63
 3368.67   29.23  3833.8   30.58 4092.09   31.38 4437.02   31.93 5177.22   32.36
 5807.95   33.58 6171.93   33.74 6575.68   34.13 6714.49   34.45 7453.07   35.33
 8296.98   35.12 8769.17   34.73 8794.33   34.83 9065.61      35 9317.55   35.73
 9698.61   35.5710422.03   36.7310693.31   37.8210962.67    38.910964.59   40.06
10973.64      50
#Mann= 3 , 0 , 0 
       0     .15       0 2195.45     .05       0 2265.45     .15       0
Bank Sta=2195.45,2265.45
XS Rating Curve= 0 ,0
XS HTab Starting El and Incr=20,1, 100 
Exp/Cntr=0.3,0.1

Type RM Length L Ch R = 1 ,605318.*,114.46,114.46,114.46
XS GIS Cut Line=5
0.786211100671270.797490745414340.808465465004620.81515786131731
0.808855379791680.815396142726740.809245294578740.81563442413617
0.86916284383068 0.9098898777273
Node Last Edited Time=May/19/2003 17:02:41
#Sta/Elev= 41 
       0      50    9.42   38.69   10.36      38  932.73   36.01  942.15   35.88
 1224.79   30.23 1243.64   29.97 1695.87   28.04    1710   27.98 2124.55   26.07
 2166.94   25.69 2176.36    25.4 2194.36      20 2212.36      19 2231.36      22
 2246.36    25.4 2278.69   25.85 2352.96   26.11 2708.29   27.36  3140.6   28.51
 3330.12    29.1 3787.04   30.47 4040.78   31.27 4379.61   31.94 5106.76   32.51
 5726.36   33.67 6083.92    33.7 6480.54    33.9 6616.91   34.19 7342.46   35.07
 8171.47   34.64 8635.34   34.18 8660.05    34.3 8926.55   34.83 9174.04   35.78
 9548.37   35.7510259.03   36.8510525.53   37.7910790.13   38.7210792.03   40.07
10800.91      50
#Mann= 3 , 0 , 0 
       0     .15       0 2176.36     .05       0 2246.36     .15       0
Bank Sta=2176.36,2246.36
XS Rating Curve= 0 ,0
XS HTab Starting El and Incr=20,1, 100 
Exp/Cntr=0.3,0.1

Type RM Length L Ch R = 1 ,605313.*,114.46,114.46,114.46
XS GIS Cut Line=5
0.786020706588590.798436120252430.807686216721610.81643299406503
0.808076131508670.816671275474460.80846604629573 0.8169095568839
0.866755917287440.90982049597314
Node Last Edited Time=May/19/2003 17:02:41
#Sta/Elev= 41 
       0      50    9.34   38.79   10.27      38  924.55   36.01  933.88   35.87
 1214.05   30.26 1232.73   29.98 1680.99   28.04    1695   27.98 2105.91   26.05
 2147.93   25.64 2157.27    25.4 2175.27      20 2193.27      19 2212.27      22
 2227.27    25.4 2259.01   25.89 2331.96   26.13  2680.9   27.27 3105.45   28.38
 3291.56   28.97 3740.28   30.35 3989.46   31.17 4322.21   31.96  5036.3   32.65
 5644.77   33.75  5995.9   33.66 6385.41   33.68 6519.33   33.93 7231.84    34.8
 8045.97   34.16  8501.5   33.64 8525.77   33.77 8787.48   34.66 9030.53   35.84
 9398.14   35.9310096.04   36.9810357.75   37.76 10617.6   38.5410619.46   40.08
10628.18      50
#Mann= 3 , 0 , 0 
       0     .15       0 2157.27     .05       0 2227.27     .15       0
Bank Sta=2157.27,2227.27
XS Rating Curve= 0 ,0
XS HTab Starting El and Incr=20,1, 100 
Exp/Cntr=0.3,0.1

Type RM Length L Ch R = 1 ,605309.*,114.46,114.46,114.46
XS GIS Cut Line=5
 0.78584823531070.79938235598686 0.80690696843860.81770812681275
0.807296883225660.817946408222180.807686798012720.81818468963162
0.864346729405650.90974779613674
Node Last Edited Time=May/19/2003 17:02:41
#Sta/Elev= 41 
       0      50    9.26   38.89   10.18      38  916.36      36  925.62   35.85
 1203.31    30.3 1221.82   29.99 1666.12   28.05    1680   27.99 2087.27   26.03
 2128.93    25.6 2138.18    25.4 2156.18      20 2174.18      19 2193.18      22
 2208.18    25.4 2239.34   25.92 2310.95   26.14 2653.52   27.18  3070.3   28.25
 3253.01   28.84 3693.52   30.23 3938.14   31.06 4264.81   31.97 4965.84   32.79
 5563.18   33.83 5907.89   33.61 6290.27   33.45 6421.74   33.67 7121.23   34.53
 7920.47   33.68 8367.67   33.09  8391.5   33.24 8648.42    34.5 8887.02   35.89
 9247.91   36.11 9933.04    37.110189.97   37.7310445.07   38.3610446.89   40.09
10455.45      50
#Mann= 3 , 0 , 0 
       0     .15       0 2138.18     .05       0 2208.18     .15       0
Bank Sta=2138.18,2208.18
XS Rating Curve= 0 ,0
XS HTab Starting El and Incr=20,1, 100 
Exp/Cntr=0.3,0.1

Type RM Length L Ch R = 1 ,605304.*,114.46,114.46,114.46
XS GIS Cut Line=5
0.785694248202110.800330536450810.806127720155590.81898325956047
0.806517634942650.819221540969910.806907549729710.81945982237934
0.861935242730780.90967165959663
Node Last Edited Time=May/19/2003 17:02:41
#Sta/Elev= 41 
       0      50    9.17   38.99   10.09      38  908.18      36  917.36   35.83
 1192.56   30.33 1210.91   29.99 1651.24   28.06    1665   27.99 2068.64   26.02
 2109.92   25.55 2119.09    25.4 2137.09      20 2155.09      19 2174.09      22
 2189.09    25.4 2219.67   25.96 2289.95   26.16 2626.13   27.09 3035.15   28.13
 3214.45   28.71 3646.76   30.12 3886.82   30.96  4207.4   31.99 4895.37   32.94
 5481.59   33.92 5819.88   33.57 6195.14   33.23 6324.16   33.42 7010.61   34.27
 7794.96    33.2 8233.83   32.55 8257.22   32.71 8509.36   34.33 8743.51   35.95
 9097.68   36.28 9770.05   37.2210022.18    37.710272.53   38.1810274.32    40.1
10282.73      50
#Mann= 3 , 0 , 0 
       0     .15       0 2119.09     .05       0 2189.09     .15       0
Bank Sta=2119.09,2189.09
XS Rating Curve= 0 ,0
XS HTab Starting El and Incr=20,1, 100 
Exp/Cntr=0.3,0.1

Type RM Length L Ch R = 1 ,605300  ,116.34,116.34,116.34
BEGIN DESCRIPTION:
Source:  Hillsborough County SWMM Model
END DESCRIPTION:
XS GIS Cut Line=5
0.785559240000180.801281881606710.80534847187258 0.8202583923082
0.805738386659640.82049667371763 0.80612830144670.82073495512706
0.859521333808580.90959156371497
Node Last Edited Time=May/18/2003 09:28:46
#Sta/Elev= 22 
       0      50      10      38     900      36    1200      30    1650      28
    2050      26    2100    25.4    2118      20    2136      19    2155      22
    2170    25.4    2200      26    3000      28    3600      30    4150      32
    5400      34    6100      33    6900      34    8100      32    8600      36
   10100      38   10110      50
#Mann= 3 , 0 , 0 
       0     .15       0    2100     .05       0    2170     .15       0
Bank Sta=2100,2170
XS Rating Curve= 0 ,0
XS HTab Starting El and Incr=20,0.2, 100 
Pilot Channel=18.5,1,0.02
Exp/Cntr=0.3,0.1

Type RM Length L Ch R = 1 ,605296.*,116.34,116.34,116.34
XS GIS Cut Line=5
0.784826491167690.801198946784710.80456633827185 0.8215605274441
0.804946339279620.821792750429030.805326340287390.82202497341395
0.857463915513150.91137029304068
Node Last Edited Time=May/19/2003 17:02:41
#Sta/Elev= 39 
       0      50    6.98   41.62   10.34      38  907.97   36.05  930.92   35.99
 1241.22   30.25  1431.8   29.38 1466.72    29.1 1592.44   28.46 1706.68   27.96
 2025.47   26.43 2120.43      26 2165.16   25.52 2172.14   25.34 2189.29   20.13
 2206.43      19 2225.39   22.11 2230.08   23.17 2240.36    25.4 2270.29   25.96
  2492.3   26.52  3068.6    27.9 3667.33    29.8 4216.17    31.7 4446.11   32.06
 4651.77   32.51    4878   32.99 5165.93   33.56 5463.53      34 6162.05   33.07
 6960.36      34 7705.88   32.84 7890.98    32.7 8157.82   32.37 8353.73   33.89
 8656.76   36.1710153.29   38.1410153.59   38.1610163.57      50
#Mann= 3 , 0 , 0 
       0     .15       0 2172.14     .05       0 2240.36     .15       0
Bank Sta=2172.14,2240.36
XS Rating Curve= 0 ,0
XS HTab Starting El and Incr=20,1, 100 
Pilot Channel=18.43172,1,0.02
Exp/Cntr=0.3,0.1

Type RM Length L Ch R = 1 ,605292.*,116.34,116.34,116.34
XS GIS Cut Line=5
0.783878636437360.801360750085630.803784318903970.82286273238902
 0.80415429189960.823088827140430.804524264895240.82331492189184
0.85538374542357 0.9131422414281
Node Last Edited Time=May/19/2003 17:02:41
#Sta/Elev= 39 
       0      50    7.22   41.34   10.69      38  938.13   36.04  961.84   35.97
 1282.45   30.49 1479.35   29.58 1515.43   29.17 1645.33   28.42 1763.37   27.92
 2092.74   26.39 2190.85      26 2237.07   25.56 2244.29   25.29 2260.57   20.26
 2276.86      19 2295.78   22.21 2300.45   23.28 2310.71    25.4 2340.59   25.92
 2562.12   26.48  3137.2    27.8 3734.67    29.6 4282.34   31.39 4511.79   31.74
 4717.02   32.31 4942.77   32.91 5230.09   33.59 5527.06      34  6224.1   33.14
 7020.72      34 7764.66   32.93 7949.37   32.95 8215.64   32.74 8411.13    34.2
 8713.53   36.3310206.88   38.2910207.19   38.3310217.14      50
#Mann= 3 , 0 , 0 
       0     .15       0 2244.29     .05       0 2310.71     .15       0
Bank Sta=2244.29,2310.71
XS Rating Curve= 0 ,0
XS HTab Starting El and Incr=20,1, 100 
Pilot Channel=18.36343,1,0.02
Exp/Cntr=0.3,0.1

Type RM Length L Ch R = 1 ,605289.*,116.34,116.34,116.34
XS GIS Cut Line=5
0.782895888754380.801573037644980.803002185303240.82416486752492
0.803362244519580.824384903851830.803722303735930.82460494017873
0.853280887552190.91490650779419
Node Last Edited Time=May/19/2003 17:02:41
#Sta/Elev= 39 
       0      50    7.45   41.06   11.03      38  968.28   36.04  992.76   35.96
 1323.67   30.74 1526.91   29.79 1564.15   29.24 1698.22   28.39 1820.05   27.89
 2160.01   26.36 2261.28      26 2308.98   25.59 2316.43   25.23 2331.86   20.39
 2347.29      19 2366.17   22.32 2370.83   23.39 2381.07    25.4 2410.88   25.89
 2631.94   26.44 3205.81    27.7    3802    29.4 4348.51   31.09 4577.47   31.43
 4782.27   32.12 5007.54   32.83 5294.25   33.63 5590.59      34 6286.15   33.21
 7081.07      34 7823.44   33.02 8007.75   33.21 8273.46    33.1 8468.54   34.52
 8770.29    36.510260.47   38.4310260.78   38.4910270.71      50
#Mann= 3 , 0 , 0 
       0     .15       0 2316.43     .05       0 2381.07     .15       0
Bank Sta=2316.43,2381.07
XS Rating Curve= 0 ,0
XS HTab Starting El and Incr=20,1, 100 
Pilot Channel=18.29514,1,0.02
Exp/Cntr=0.3,0.1

Type RM Length L Ch R = 1 ,605285.*,116.34,116.34,116.34
XS GIS Cut Line=5
0.781920173340330.801793693335010.802220054422340.82546700432295
0.802570197139570.82568098056323 0.8029203398568 0.8258949568035
0.851155206432470.91666245764341
Node Last Edited Time=May/19/2003 17:02:41
#Sta/Elev= 39 
       0      50    7.68   40.78   11.37      38  998.44   36.04 1023.67   35.95
  1364.9   30.99 1574.46   29.99 1612.86   29.31 1751.11   28.35 1876.73   27.85
 2227.29   26.33  2331.7      26 2380.89   25.63 2388.57   25.17 2403.14   20.51
 2417.71      19 2436.55   22.43 2441.21    23.5 2451.43    25.4 2481.17   25.85
 2701.77    26.4 3274.41    27.6 3869.34    29.2 4414.69   30.79 4643.16   31.12
 4847.52   31.93 5072.31   32.76 5358.41   33.66 5654.11      34  6348.2   33.29
 7141.43      34 7882.22   33.11 8066.14   33.46 8331.28   33.47 8525.94   34.84
 8827.05   36.6710314.07   38.5710314.37   38.6610324.29      50
#Mann= 3 , 0 , 0 
       0     .15       0 2388.57     .05       0 2451.43     .15       0
Bank Sta=2388.57,2451.43
XS Rating Curve= 0 ,0
XS HTab Starting El and Incr=20,1, 100 
Pilot Channel=18.22686,1,0.02
Exp/Cntr=0.3,0.1

Type RM Length L Ch R = 1 ,605282.*,116.34,116.34,116.34
XS GIS Cut Line=5
0.780950438942880.802022325671590.801437920821610.82676913945886
0.801778149759550.826977057274620.802118378697490.82718497509039
0.849006625975650.91840897537652
Node Last Edited Time=May/19/2003 17:02:41
#Sta/Elev= 39 
       0      50    7.91   40.51   11.72      38 1028.59   36.03 1054.59   35.94
 1406.12   31.23 1622.01   30.19 1661.58   29.38    1804   28.32 1933.42   27.81
 2294.56    26.3 2402.13      26  2452.8   25.67 2460.71   25.11 2474.43   20.64
 2488.14      19 2506.94   22.53 2511.59   23.61 2521.79    25.4 2551.47   25.81
 2771.59   26.36 3343.01    27.5 3936.67      29 4480.86   30.49 4708.84   30.81
 4912.76   31.73 5137.08   32.68 5422.57   33.69 5717.64      34 6410.24   33.36
 7201.79      34    7941    33.2 8124.53   33.72  8389.1   33.84 8583.35   35.15
 8883.82   36.8310367.66   38.7110367.96   38.8210377.86      50
#Mann= 3 , 0 , 0 
       0     .15       0 2460.71     .05       0 2521.79     .15       0
Bank Sta=2460.71,2521.79
XS Rating Curve= 0 ,0
XS HTab Starting El and Incr=20,1, 100 
Pilot Channel=18.15857,1,0.02
Exp/Cntr=0.3,0.1

Type RM Length L Ch R = 1 ,605278.*,116.34,116.34,116.34
XS GIS Cut Line=5
0.779985818613930.802258492867380.800655901453730.82807134440377
0.800986102379530.828273133986020.801316303305330.82847492356828
0.846818311007760.92015370275093
Node Last Edited Time=May/19/2003 17:02:41
#Sta/Elev= 39 
       0      50    8.14   40.23   12.06      38 1058.75   36.03 1085.51   35.92
 1447.35   31.48 1669.57   30.39 1710.29   29.45 1856.89   28.28  1990.1   27.77
 2361.83   26.26 2472.55      26 2524.71    25.7 2532.86   25.06 2545.71   20.77
 2558.57      19 2577.33   22.64 2581.97   23.72 2592.14    25.4 2621.76   25.77
 2841.41   26.32 3411.61    27.4    4004    28.8 4547.03   30.18 4774.53    30.5
 4978.01   31.54 5201.85   32.61 5486.73   33.73 5781.17      34 6472.29   33.43
 7262.15      34 7999.77   33.29 8182.91   33.97 8446.92   34.21 8640.75   35.47
 8940.58      3710421.25   38.8610421.56   38.9810431.43      50
#Mann= 3 , 0 , 0 
       0     .15       0 2532.86     .05       0 2592.14     .15       0
Bank Sta=2532.86,2592.14
XS Rating Curve= 0 ,0
XS HTab Starting El and Incr=20,1, 100 
Pilot Channel=18.09029,1,0.02
Exp/Cntr=0.3,0.1

Type RM Length L Ch R = 1 ,605275.*,116.34,116.34,116.34
XS GIS Cut Line=5
0.779073395763480.80246475125469  0.7998737678530.82937347953968
0.800194054999510.829569210697420.800514342146030.82976494185517
0.844601549364370.92188945525798
Node Last Edited Time=May/19/2003 17:02:41
#Sta/Elev= 39 
       0      50    8.38   39.95    12.4      38 1088.91   36.02 1116.43   35.91
 1488.57   31.73 1717.12   30.59    1759   29.52 1909.77   28.25 2046.79   27.74
  2429.1   26.23 2542.98      26 2596.62   25.74    2605      25    2617    20.9
    2629      19 2647.72   22.75 2652.35   23.83  2662.5    25.4 2692.06   25.74
 2911.24   26.28 3480.22   27.29 4071.34    28.6  4613.2   29.88 4840.21   30.18
 5043.26   31.35 5266.62   32.53 5550.89   33.76  5844.7      34 6534.34    33.5
  7322.5      34 8058.55   33.38  8241.3   34.22 8504.75   34.58 8698.16   35.79
 8997.35   37.1710474.85      3910475.15   39.15   10485      50
#Mann= 3 , 0 , 0 
       0     .15       0    2605     .05       0  2662.5     .15       0
Bank Sta=2605,2662.5
XS Rating Curve= 0 ,0
XS HTab Starting El and Incr=20,1, 100 
Pilot Channel=18.022,1,0.02
Exp/Cntr=0.3,0.1

Type RM Length L Ch R = 1 ,605271.*,116.34,116.34,116.34
XS GIS Cut Line=5
0.778309675724230.802384891200070.799122218576960.83046561220493
0.799317039170840.830772780414580.799511859764720.83107994862423