Flow Title=unsteady
Version=Version 3.1 Beta  Mar 2002
Use Restart= 0 
Initial Storage Elev=Bayou           ,205
Boundary Location=Beaver Creek    ,Kentwood        ,5.99    ,        ,                ,                
Interval=1HOUR
Flow Hydrograph= 121 
    5000 5098.34 5220.25 5389.05 5602.89 5859.42 6155.85 6488.91 6854.97    7250
 7669.69 8109.42  8564.4 9029.62    9500 9970.38 10435.610890.5811330.31   11750
12145.0312511.0912844.1513140.5813397.1113610.9513779.7513901.6613975.35   14000
13975.3513901.6613779.7513610.9513397.1113140.5812844.1512511.0912145.03   11750
11330.3110890.58 10435.6 9970.38    9500 9029.62  8564.4 8109.42 7669.69    7250
 6854.97 6488.91 6155.85 5859.42 5602.89 5389.05 5220.25 5098.34 5024.65    5000
    5000    5000    5000    5000    5000    5000    5000    5000    5000    5000
    5000    5000    5000    5000    5000    5000    5000    5000    5000    5000
    5000    5000    5000    5000    5000    5000    5000    5000    5000    5000
    5000    5000    5000    5000    5000    5000    5000    5000    5000    5000
    5000    5000    5000    5000    5000    5000    5000    5000    5000    5000
    5000    5000    5000    5000    5000    5000    5000    5000    5000    5000
    5000
DSS Path=
Use DSS=False
CWMS InputPosition= 0 
Use Fixed Start Time=False
Fixed Start Date/Time=,
Is Critical Boundary=False
Critical Boundary Flow=
Boundary Location=Beaver Creek    ,Kentwood        ,5.0     ,        ,                ,                
Interval=1HOUR
Rating Curve= 20 
  204.14     200  206.09     500  207.26    1000  208.47    2000   209.3    3000
  209.83    4000  210.25    5000  210.68    6000  210.99    7000  211.27    8000
  211.53    9000  211.78   10000  212.02   11000  212.25   12000  212.47   13000
  212.68   14000     213   16000     214   21000     215   26000     216   30000
DSS Path=
Use DSS=False
CWMS InputPosition= 0 
Use Fixed Start Time=False
Fixed Start Date/Time=,
Is Critical Boundary=False
Critical Boundary Flow=
Boundary Location=                ,                ,        ,        ,                ,Bayou           
Interval=1HOUR
Lateral Inflow Hydrograph= 121 
     100     145     190     235     280     325     370     415     460     505
     550     595     640     685     730     775     820     865     910     955
    1000  988.61  977.22  965.82  954.43  943.04  931.65  920.25  908.86  897.47
  886.08  874.68  863.29   851.9  840.51  829.11  817.72  806.33  794.94  783.54
  772.15  760.76  749.37  737.97  726.58  715.19   703.8  692.41  681.01  669.62
  658.23  646.84  635.44  624.05  612.66  601.27  589.87  578.48  567.09   555.7
   544.3  532.91  521.52  510.13  498.73  487.34  475.95  464.56  453.16  441.77
  430.38  418.99  407.59   396.2  384.81  373.42  362.03  350.63  339.24  327.85
  316.46  305.06  293.67  282.28  270.89  259.49   248.1  236.71  225.32  213.92
  202.53  191.14  179.75  168.35  156.96  145.57  134.18  122.78  111.39     100
   96.43   92.86   89.29   85.71   82.14   78.57      75   71.43   67.86   64.29
   60.71   57.14   53.57      50   46.43   42.86   39.29   35.71   32.14   28.57
      25
DSS Path=
Use DSS=False
CWMS InputPosition= 0 
Use Fixed Start Time=False
Fixed Start Date/Time=,
Is Critical Boundary=False
Critical Boundary Flow=
