Geom Title=Beaver Cr. 
Program Version=5.00
Viewing Rectangle=-0.1626 , 0.9203 , 1.0721 ,-0.1611 

River Reach=Beaver Creek    ,Kentwood        
Reach XY= 5 
       0.1512884       0.9355259       0.2753853        0.791339
       0.3737268       0.6130833        0.659477       0.2536967
       0.8465474       0.0901639
Rch Text X Y=-0.0529478,0.7263683
Reverse River Text= 0 

Type RM Length L Ch R = 1 ,5.99    ,146.67,200,133.33
BEGIN DESCRIPTION:
Upstream Boundary Cross Section
END DESCRIPTION:
XS GIS Cut Line=5
0.295982404643591.060059248208860.157829143319060.94115530162796
       0.1512884       0.93552590.144747656680940.92989649837204
-0.00953705651890.79876621816467
Node Last Edited Time=Apr/18/2000 14:33:20
#Sta/Elev= 35 
       0     221       7   220.3      36   216.6     131   216.6     233   216.8
     282   216.6     351   216.4     518   216.1     591   213.3     627   213.2
     692     209     709   212.7     719   209.4     738   204.9     751   210.8
     771   212.8     797   213.7     820   211.6     866   214.8     879     214
     899   210.2     932   209.9     948   216.6    1011   218.1    1063   218.7
    1093   219.1    1198   218.5    1283   218.2    1542   218.4    1565   218.1
    1772   218.1    1791   218.4    1831   218.9    1887   220.4    1910   220.8
#Mann= 4 , 1 , 0 
       0      .1       0     518     .14       0     866     .04       0
     948     .14       0
Levee=-1,866,214.8,0,,,0,0
Bank Sta=866,948
XS Rating Curve= 0 ,0
XS HTab Starting El and Incr=210.4,0.53, 20 
XS HTab Horizontal Distribution= 5 , 5 , 5 
Exp/Cntr=0.3,0.1

Type RM Length L Ch R = 1 ,5.95166*,146.67,200,133.33
XS GIS Cut Line=5
0.312348263346781.016428474010050.186817942303690.91056459674966
0.178748895746170.903619835028980.170679849188640.89667507330829
0.005107898119220.76294753485884
Node Last Edited Time=Apr/29/2002 09:20:22
#Sta/Elev= 98 
       0  220.62    6.28  220.02    6.31  220.02   32.43  216.86   35.51  216.85
   86.67  216.57  117.95  216.42  118.02  216.42  188.98  216.23  209.88  216.26
  209.91  216.26  253.99  216.08  254.05  216.08  316.17   215.9  316.21   215.9
  466.66  215.61  466.69  215.61  532.42  213.26  532.46  213.26  564.86  213.17
   564.9  213.17  582.34  212.12  623.36  209.72  623.41  209.72  638.73  212.82
  638.75  212.81  647.72  210.08  647.74  210.08  664.85  206.35   664.9  206.36
  676.56  211.28  694.52  212.96  694.58  212.97  717.98  213.74  718.01  213.74
  738.73  212.02  738.75  212.02  780.17  214.73  793.36  213.85  813.67  210.36
  816.48   210.3  829.49  209.45  847.17  209.08  853.47  211.23     857  211.77
  860.54  212.12   865.2  213.18  879.44  215.52  881.33  215.95  947.55  217.34
  947.59  217.34   976.3  217.66 1002.18   217.9 1002.21   217.9 1007.65  217.96
 1015.67  218.04 1026.15  218.15 1033.71  218.23 1033.74  218.23 1047.84  218.17
 1076.82  218.04 1095.32  217.95 1110.63  217.88 1144.08  217.77 1144.11  217.77
 1169.33  217.73 1200.68  217.57 1221.64  217.45 1229.66  216.71 1233.45  216.73
 1233.49  216.73 1237.68  216.77 1269.03  216.89 1308.49  217.71 1324.53   216.8
 1324.53  216.94 1348.68  216.95  1356.8  216.94    1438  217.26 1446.02   217.3
 1505.69  216.88 1505.71  216.88    1512  216.77 1529.87  217.15 1536.15  217.35
 1598.86   217.5 1617.36  217.42 1635.86  217.45 1747.41  217.81 1747.45  217.81
 1767.42  218.13 1767.46  218.13 1789.52  218.42 1809.46  218.67 1809.47  218.67
 1868.32  220.08 1868.35  220.08  1892.5  220.48
#Mann= 6 , 1 , 0 
       0      .1       0  466.66    .127       0  466.69    .107       0
  780.17     .04       0  881.33     .14       0  1892.5     .14       0
Bank Sta=780.17,881.33
XS Rating Curve= 0 ,0
XS HTab Starting El and Incr=209.58,0.55, 20 
XS HTab Horizontal Distribution= 5 , 5 , 5 
Exp/Cntr=0.3,0.1

Type RM Length L Ch R = 1 ,5.91333*,146.67,200,133.33
XS GIS Cut Line=5
 0.32921953196850.972146752513190.215808328412510.87997525785671
0.206209391492330.871713770057950.19661045457215 0.8634522822592
0.019836360554910.72721891930139
Node Last Edited Time=Apr/29/2002 09:20:22
#Sta/Elev= 98 
       0  220.23    5.59  219.73    5.61  219.73   28.86  217.12   31.61   217.1
   77.14  216.53  104.98  216.25  105.03  216.25  168.19   215.7  186.79  215.72
  186.81  215.72  226.04  215.57   226.1  215.57  281.38   215.4  281.42   215.4
  415.32  215.13  415.34  215.13  473.85  213.23  473.88  213.23  502.71  213.14
  502.75  213.14  518.27   212.3  554.78  210.43  554.83  210.44  568.46  212.93
  568.47  212.93  576.46  210.75  576.47  210.75  591.71   207.8  591.75   207.8
  602.13  211.75  618.11  213.13  618.17  213.13  638.99  213.79  639.01  213.79
  657.45  212.43  657.48  212.43  694.33  214.67  707.73  213.71  728.33  210.52
  731.19  210.42   744.4  208.84  762.33  208.27  771.98  211.33   777.4  211.72
  782.82  211.71  789.95  212.93  811.77  214.82  814.67   215.3  884.11  216.58
  884.15  216.58  914.25  216.91  941.39   217.1  941.42   217.1  947.12  217.14
  955.53  217.22  966.53   217.3  974.46  217.37  974.49  217.37  989.27  217.31
 1019.66  217.21 1039.06  217.14 1055.12  217.09 1090.19  217.04 1090.22  217.04
 1116.66  217.05 1149.54  216.84 1171.52  216.66 1179.93  215.21 1183.91  215.26
 1183.94  215.26 1188.34  215.33 1221.22  215.55  1262.6  217.17 1279.42  215.34
 1279.42  215.61 1304.74  215.62 1313.25   215.6  1398.4  216.17 1406.81  216.24
 1469.38  215.36 1469.41  215.36    1476  215.21 1494.73   216.2 1501.33   216.6
 1567.08   216.9 1586.48  216.73 1605.88   216.8 1722.85  217.53 1722.89  217.53
 1743.84  217.85 1743.88  217.85 1767.01  218.17 1787.92  218.44 1787.94  218.44
 1849.65  219.77 1849.67  219.77    1875  220.17
#Mann= 6 , 1 , 0 
       0      .1       0  415.32    .113       0  415.34    .113       0
  694.33     .04       0  814.67     .14       0    1875     .14       0
Bank Sta=694.33,814.67
XS Rating Curve= 0 ,0
XS HTab Starting El and Incr=208.77,0.57, 20 
XS HTab Horizontal Distribution= 5 , 5 , 5 
Exp/Cntr=0.3,0.1

Type RM Length L Ch R = 1 ,5.875*  ,146.67,200,133.33
BEGIN DESCRIPTION:
River Mile 5.875
END DESCRIPTION:
XS GIS Cut Line=5
0.346048484633950.927818761572990.24479712739714 0.8493845529784
0.233669887238490.839807705086930.222542647079850.83023085719545
0.034642149223120.69156361531706
Node Last Edited Time=Apr/18/2000 14:33:20
#Sta/Elev= 73 
       0  219.85     4.9  219.45    25.3  217.38    27.7  217.35    67.6   216.5
      92  216.07   147.4  215.18   163.7  215.18   198.1  215.05   246.6   214.9
     364  214.64   415.3  213.19   440.6  213.11   454.2  212.47   486.2  211.15
   498.2  213.05   505.2  211.43   518.6  209.24   527.7  212.23   541.7   213.3
     560  213.83   576.2  212.85   608.5   214.6   622.1  213.56     643  210.68
   645.9  210.54   659.3  208.23   677.5  207.45   690.5  211.42   697.8  211.66
   705.1  211.31   714.7  212.67   744.1  214.11     748  214.65   820.7  215.82
   852.2  216.16   880.6   216.3   886.6  216.33   895.4  216.39   906.9  216.45
   915.2   216.5   930.7  216.46   962.5  216.38   982.8  216.33   999.6  216.29
  1036.3  216.31    1064  216.36  1098.4   216.1  1121.4  215.87  1130.2  213.71
  1134.4  213.79    1139   213.9  1173.4  214.21  1216.7  216.63  1234.3  213.88
  1234.3  214.28  1260.8  214.29  1269.7  214.25  1358.8  215.08  1367.6  215.18
  1433.1  213.84    1440  213.66  1459.6  215.25  1466.5  215.85  1535.3   216.3
  1555.6  216.05  1575.9  216.15  1698.3  217.24  1720.3  217.58  1744.5  217.93
  1766.4  218.21    1831  219.45  1857.5  219.85
#Mann= 4 , 1 , 0 
       0      .1       0     364     .12       0   608.5     .04       0
     748     .14       0
Bank Sta=608.5,748
XS Rating Curve= 0 ,0
XS HTab Starting El and Incr=207.95,0.6, 20 
XS HTab Horizontal Distribution= 5 , 5 , 5 
Exp/Cntr=0.3,0.1

Type RM Length L Ch R = 1 ,5.83666*,146.67,200,133.33
XS GIS Cut Line=5
0.362809286801280.883426705846410.27378592638176 0.8187938481001
0.26113038298466 0.80790164011590.248474839587550.79700943213171
0.050420375751220.65470539762202
Node Last Edited Time=Apr/29/2002 09:20:22
#Sta/Elev= 101 
       0  219.47    4.21  219.16   21.73  217.64   23.79   217.6   23.83   217.6
   58.06  216.47   79.02  215.89  126.57  214.65  126.61  214.65  140.61  214.64
  170.16  214.53  211.82   214.4  312.66  214.15  356.72  213.15  378.45  213.08
  390.13  212.65  417.62  211.86  427.93  213.17  433.94  212.11  445.45  210.69
  453.26  212.71  465.29  213.46  481.01  213.87  494.92  213.27  522.67  214.53
  536.46  213.42  557.67  210.84  560.58  210.66  560.61  210.66  574.19  207.62
  592.67  206.63  608.98  211.51  609.02  211.51   618.2  211.61  627.38  210.91
  627.42  210.91  639.45  212.41  639.48  212.41  676.37  213.41  676.43  213.41
  681.33     214  757.26  215.06   790.1  215.41  790.15  215.41  819.81   215.5
  826.05  215.52  826.08  215.52  835.27  215.56  847.25   215.6  847.27   215.6
  855.94  215.63  872.13  215.61  872.14  215.61  905.32  215.55  905.34  215.55
  926.52  215.52  926.54  215.52  944.04  215.49  944.08  215.49  982.41  215.58
 1011.33  215.67 1047.26  215.37 1047.28  215.37 1071.24  215.08 1071.28  215.07
 1080.46  212.21 1084.86  212.32 1089.66  212.47 1089.68  212.47 1125.58  212.87
 1125.63  212.87 1170.79  216.09 1189.18  212.42 1189.18  212.69 1189.23  212.69
 1189.23  212.95 1216.86  212.96 1216.88  212.96  1226.1   212.9 1226.15   212.9
  1319.2  213.99 1328.39  214.12 1328.42  214.12 1396.79  212.32    1404  212.11
 1424.47   214.3 1431.66   215.1 1431.67   215.1 1503.52   215.7 1503.55   215.7
 1524.72  215.37 1524.75  215.37 1545.92   215.5 1545.95   215.5 1673.75  216.95
 1696.72  217.31 1721.99  217.69 1722.01  217.69 1744.86  217.98 1812.33  219.13
    1840  219.53
#Mann= 5 , 1 , 0 
       0      .1       0  312.66    .113       0  522.67     .04       0
  681.33     .14       0    1840     .14       0
Bank Sta=522.67,681.33
XS Rating Curve= 0 ,0
XS HTab Starting El and Incr=207.13,0.62, 20 
XS HTab Horizontal Distribution= 5 , 5 , 5 
Exp/Cntr=0.3,0.1

Type RM Length L Ch R = 1 ,5.79833*,146.67,200,133.33
XS GIS Cut Line=5
0.378227523038260.833394121873380.301551561030670.78265455287294
0.285164086630660.773613782711270.268776617854890.76457301565242
0.062253267108180.61632297737662
Node Last Edited Time=Apr/29/2002 09:20:22
#Sta/Elev= 102 
       0  219.08    3.52  218.88   18.16   217.9   19.89  217.85   19.91  217.85
   48.53  216.43   66.05  215.72  105.79  214.13  105.82  214.13  117.52  214.11
  142.21  214.02  177.03   213.9  261.31  213.66  298.14  213.11   316.3  213.05
  326.06  212.82  349.04  212.58  357.65  213.28  362.68  212.79   372.3  212.14
  378.83  213.19  388.88  213.63  402.02  213.92  413.65  213.69  436.83  214.47
  450.83  213.27  472.33  211.01  475.29  210.78  475.32  210.77   489.1  207.01
  507.83  205.82  527.49   211.6  527.53  211.61   538.6  211.55  549.66  210.51
  549.71  210.51   564.2  212.15  564.24  212.16  608.68   212.7  608.76  212.71
  614.67  213.35  693.81   214.3  728.05  214.65   728.1  214.65  759.02   214.7
  765.53  214.71  765.55  214.71  775.13  214.73  787.63  214.75  787.65  214.75
  796.69  214.77  813.56  214.75  813.57  214.75  848.16  214.73  848.18  214.73
  870.26  214.71  870.28  214.71  888.52   214.7  888.57   214.7  928.52  214.86
  958.66  214.99  996.12  214.63  996.14  214.63 1021.12  214.29 1021.16  214.28
 1030.73   210.7 1030.74   210.7 1035.31  210.86 1040.32  211.03 1040.34  211.03
 1077.77  211.54 1077.81  211.54  1124.9  215.54 1144.07  210.97 1144.07   211.1
 1144.11  211.09 1144.11  211.63 1172.92  211.63 1172.94  211.63 1182.55  211.55
  1182.6  211.55  1279.6  212.89 1289.18  213.06 1289.21  213.06 1360.49   210.8
    1368  210.55 1389.33  213.35 1396.83  214.35 1396.85  214.35 1471.74   215.1
 1471.78   215.1 1493.84  214.68 1493.88  214.68 1515.94  214.85 1515.98  214.85
 1649.19  216.67 1673.14  217.04 1699.48  217.44 1699.51  217.44 1723.33  217.76
 1793.65  218.82  1822.5  219.22
#Mann= 5 , 1 , 0 
       0      .1       0  261.31    .107       0  436.83     .04       0
  614.67     .14       0  1822.5     .14       0
Bank Sta=436.83,614.67
XS Rating Curve= 0 ,0
XS HTab Starting El and Incr=206.32,0.64, 20 
XS HTab Horizontal Distribution= 5 , 5 , 5 
Exp/Cntr=0.3,0.1

Type RM Length L Ch R = 1 ,5.76    ,112.5,200,137.5
BEGIN DESCRIPTION:
River Mile 5.76
END DESCRIPTION:
XS GIS Cut Line=5
0.38775844426351 0.78348975551450.323651713080650.74676966824186
 0.30549869930820.736754871498170.287345685535750.72674007475449
0.072351907801840.57254266632392
Node Last Edited Time=Apr/18/2000 14:33:20
#Sta/Elev= 43 
       0   218.7      16   218.1      39   216.4      85   213.6     262     213
     351   214.4     390   210.9     404   206.4     423     205     446   211.7
     459   211.5     472   210.1     489   211.9     541     212     548   212.7
     666   213.9     705   213.9     715   213.9     728   213.9     755   213.9
     791   213.9     814   213.9     833   213.9     906   214.3     945   213.9
     971   213.5     981   209.2     991   209.6    1030   210.2    1079     215
    1099   209.5    1099   210.3    1129   210.3    1139   210.2    1240   211.8
    1250     212    1332     209    1362   213.6    1440   214.5    1463     214
    1486   214.2    1677   217.2    1805   218.9
#Mann= 3 , 1 , 0 
       0      .1       0     351     .04       0     548     .14       0
Levee=0,,,-1,906,214.3,0,0
Bank Sta=351,548
XS Rating Curve= 0 ,0
XS HTab Starting El and Incr=205.5,0.67, 20 
XS HTab Horizontal Distribution= 5 , 5 , 5 
Exp/Cntr=0.3,0.1

Type RM Length L Ch R = 1 ,5.7225* ,112.5,200,137.5
XS GIS Cut Line=5
0.426895839168140.755650926420290.340139176900320.70778833183054
0.325833311985730.699895960285080.311527447071150.69200358873961
0.098901857714180.54082809615874
Node Last Edited Time=Apr/29/2002 09:20:22
#Sta/Elev= 103 
       0  218.65   21.44  218.08   21.46  218.07   46.48  216.89    52.3  216.59
  113.44  213.89     114  213.87   267.7  212.89  277.35  212.21  286.44   211.9
  293.77  212.86  351.39  212.62  351.41  212.62  358.98  212.66   411.2  212.83
  470.75  213.15  500.95  210.36  511.79  206.93  511.82  206.93   526.5   205.8
   526.5  204.85  544.79  209.89  544.81  209.89  552.45  209.79  555.14  209.78
  555.16  209.77  565.49  208.82   565.5  208.82  579.04   210.3  579.07   210.3
  608.65  210.63  620.43  211.17  620.49  211.18     626  211.95  683.41  212.27
  707.45  212.51  721.04  212.14  738.79  212.37  742.34  212.42  742.36  212.42
  776.32   212.6  776.32  213.17  780.79   213.2  780.81  213.21  790.68  213.26
  790.73  213.26  803.49  213.34  803.51  213.35  830.08  213.51  830.12  213.51
  865.58  213.74  865.62  213.74   888.3  213.87  892.26   213.9  907.03  213.89
  907.07  213.89  971.68  214.09  978.98  214.12  979.02  214.12 1017.43  213.81
 1017.47  213.81 1043.09   213.5 1043.11   213.5 1052.93  210.28 1052.97  210.27
 1062.83  210.56 1062.87  210.57 1101.29     211 1101.31  211.01 1111.56  211.76
 1149.59  214.59 1149.61  214.59 1169.33  210.46 1169.33  210.86 1169.37  210.86
 1169.37  211.05 1194.02  211.05 1198.89  211.06 1198.91  211.06 1208.73     211
 1208.77     211 1297.48  212.22 1308.33  212.36 1308.37  212.37 1318.23  212.53
 1318.27  212.53 1399.09   210.4 1399.12   210.4 1428.63  213.89 1428.67  213.89
 1471.84  214.33 1505.58  214.68 1505.62  214.68 1528.24  214.35 1528.26  214.35
 1550.94  214.53 1550.96  214.54 1619.02  215.46 1725.52  216.94 1739.28  217.14
 1739.32  217.14 1845.62  218.53  1865.5   218.8
#Mann= 5 , 1 , 0 
       0    .095       0  293.77    .095       0  470.75     .04       0
     626     .12       0  1865.5     .12       0
Bank Sta=470.75,626
XS Rating Curve= 0 ,0
XS HTab Starting El and Incr=205.35,0.67, 20 
XS HTab Horizontal Distribution= 5 , 5 , 5 
Exp/Cntr=0.3,0.1

Type RM Length L Ch R = 1 ,5.685*  ,112.5,200,137.5
BEGIN DESCRIPTION:
River Mile 5.685
END DESCRIPTION:
XS GIS Cut Line=5
0.462624381859910.733707825852130.356626640719980.66880699541923
0.346167924663270.663037049071980.335709208606550.65726710272473
0.125455788699850.50911579253717
Node Last Edited Time=Apr/18/2000 14:33:20
#Sta/Elev= 69 
       0   218.6    26.9  218.05    58.3  217.06    65.6  216.78   142.3  214.16
     143  214.14   335.8  212.56   347.9  211.24   359.3  210.63   368.5  212.57
   440.8  212.24   450.3  212.24   515.8  211.95   590.5   211.9   611.9  209.82
   619.6  207.46     630   206.6     630   204.7   643.6  208.09   649.3  208.03
   651.3  208.05     659  207.54   669.1   208.7   691.1  209.29   699.9  210.35
     704   211.2   760.6  211.25   784.3  211.47   797.7  210.59   815.2  210.88
   818.7  210.94   852.2   211.3   852.2  212.45   856.6  212.51   866.4  212.63
     879  212.79   905.2  213.12   940.2  213.57   962.6  213.85   966.5   213.9
   981.1  213.87  1044.8  213.93    1052  213.94  1089.9  213.72  1115.2   213.5
  1124.9  211.34  1134.7  211.53  1172.6  211.81  1182.7  212.31  1220.2  214.18
  1239.7  211.41  1239.7  211.81    1264   211.8  1268.8  211.82  1278.5   211.8
    1366  212.81  1376.7  212.93  1386.5  213.06  1466.2  211.79  1495.3  214.18
  1537.9  214.55  1571.2  214.86  1593.5  214.69  1615.9  214.87    1683  215.64
    1788  216.89  1801.6  217.08  1906.4  218.42    1926   218.7
#Mann= 4 , 1 , 0 
       0     .09       0   368.5      .1       0   590.5     .04       0
     704      .1       0
Bank Sta=590.5,704
XS Rating Curve= 0 ,0
XS HTab Starting El and Incr=205.2,0.68, 20 
XS HTab Horizontal Distribution= 5 , 5 , 5 
Exp/Cntr=0.3,0.1

Type RM Length L Ch R = 1 ,5.6475* ,112.5,200,137.5
XS GIS Cut Line=5
0.498197511180090.711694192048850.373114104539650.62982565900792
 0.36650253734080.626178137858880.359890970141950.62253061670985
0.152013903835850.47740580148575
Node Last Edited Time=Apr/29/2002 09:20:22
#Sta/Elev= 89 
       0  218.55   32.36  218.02   70.12  217.23   70.17  217.23    78.9  216.97
  171.14  214.43  171.16  214.43     172  214.41   403.9  212.23  418.45  210.27
  432.14  209.37  432.16  209.37  443.23  212.28  443.26  212.28  530.19  211.86
  541.62  211.82  541.67  211.82   620.4  211.08  710.25  210.65  722.85  209.28
  727.38  207.99   733.5   207.4   733.5  204.55  742.41  206.28  746.15  206.26
  747.46  206.33  752.51  206.26  759.13   207.1  773.55  207.94  773.57  207.95
  779.31  209.53     782  210.45  837.79  210.23  837.81  210.23  861.15  210.43
  874.34  209.05  874.36  209.05  891.59  209.39  891.61  209.39  895.06  209.46
  928.08     210  928.08  210.57  928.12  210.58  928.12  211.73  932.41  211.81
  942.07  211.99  954.49  212.23  980.32  212.73 1014.82   213.4  1036.9  213.83
 1040.74   213.9 1040.76   213.9 1055.13  213.86 1117.88  213.76 1117.92  213.76
 1125.02  213.76 1162.37  213.63 1187.31   213.5 1196.87  212.41 1206.53   212.5
 1243.89  212.61 1253.84  212.86 1253.86  212.86 1290.81  213.77 1310.03  212.37
 1310.03  212.57 1333.98  212.55 1334.02  212.55 1338.71  212.58 1348.27   212.6
 1434.48   213.4 1434.52  213.41 1445.07   213.5 1454.73  213.59 1533.28  213.19
 1561.97  214.47 1603.94  214.77 1603.96  214.78 1636.78  215.04 1658.76  215.04
 1680.84   215.2 1746.98  215.82 1747.02  215.82 1850.48  216.84 1850.52  216.85
 1863.88  217.02 1967.18  218.31 1967.22  218.31  1986.5   218.6
#Mann= 6 , 1 , 0 
       0    .085       0  443.23     .09       0  443.26     .09       0
  710.25     .04       0     782     .08       0  1986.5     .08       0
Bank Sta=710.25,782
XS Rating Curve= 0 ,0
XS HTab Starting El and Incr=205.05,0.68, 20 
XS HTab Horizontal Distribution= 5 , 5 , 5 
Exp/Cntr=0.3,0.1

Type RM Length L Ch R = 1 ,5.61    ,240,460,190
BEGIN DESCRIPTION:
River Mile 5.61
END DESCRIPTION:
XS GIS Cut Line=5
0.53717603912554 0.69258969994790.393089172566410.59380432401552
0.39061792232099 0.59183941978180.388146672075570.58987451554809
 0.18265035955960.44777855311382
Node Last Edited Time=Apr/18/2000 14:33:20
#Sta/Elev= 31 
       0   218.5      82   217.4     200   214.7     472   211.9     489   209.3
     505   208.1     518     212     633   211.4     725   210.2     830   209.4
     837   208.2     837   204.4     843   204.5     856   206.6     860   209.7
     915   209.2     938   209.4     951   207.5     968   207.9    1004   208.7
    1004     211    1115   213.9    1191   213.6    1325   213.4    1404   213.3
    1503     214    1670     215    1811     216    1913   216.8    2028   218.2
    2047   218.5
#Mann= 4 , 1 , 0 
       0     .08       0     518      .1       0     830     .04       0
     860     .06       0
Bank Sta=830,860
XS Rating Curve= 0 ,0
XS HTab Starting El and Incr=204.9,0.68, 20 
XS HTab Horizontal Distribution= 5 , 5 , 5 
Exp/Cntr=0.3,0.1

Type RM Length L Ch R = 6 ,5.60    ,,,
Node Last Edited Time=Apr/29/2002 13:09:20
Lateral Weir Pos= 3 
Lateral Weir End=                ,                ,        ,Bayou           
Lateral Weir Distance=0
Lateral Weir TW Multiple XS=0
Lateral Weir WD=10
Lateral Weir Coef=2
Lateral Weir WSCriteria=-1 
Lateral Weir Flap Gates= 0 
Lateral Weir Hagers EQN= 0 ,,,,,
Lateral Weir SS=0.05,0.05,
Lateral Weir Type= 0 
Lateral Weir Connection Pos and Dist= 1 ,
Lateral Weir SE= 6 
       0     220     100     220     300     220     500   219.9     700   219.8
    1000   219.7
LW Culv=1,3,,50,0.013,0.4,1,1,1,205,204.9, 1 ,Culvert #1  , 0 ,
     800     800
LW Culv Bottom n=0.013
LW Div RC= 0 ,False,

Type RM Length L Ch R = 1 ,5.525*  ,80,153.33,63.33
BEGIN DESCRIPTION:
River Mile 5.525
END DESCRIPTION:
XS GIS Cut Line=5
0.566460839719850.606227681159610.455899860987170.52004971753077
0.450874985488150.516054412255550.445850109989120.51205910698034
0.237866450764020.36091684635276
Node Last Edited Time=Apr/18/2000 14:33:20
#Sta/Elev= 57 
       0   218.4    13.3  217.04    43.8  215.63    65.8  215.22   160.5  212.89
   179.1  212.58   378.7  212.12   392.4  210.88   405.2  210.33   415.6  212.32
   421.9  212.33   478.9  210.34   482.9  210.93   507.9  210.82   561.2  210.32
   581.7  210.06     666   209.3     672  207.88   685.7  207.05   687.5  206.05
   687.5  204.15   697.8  204.34   705.8  204.83   720.1  207.15   724.9  208.77
     727   210.1   774.7  210.14   783.6  210.21   807.3   210.6   820.6  209.81
   838.1  210.23   875.2  211.08   875.2  212.23   876.8  212.27     941  213.28
   989.4   213.8    1011  213.71  1067.6  213.56    1081  213.54  1132.5  213.15
  1202.6  212.75  1205.5  212.75  1278.4  212.71  1286.8  212.77  1355.3  213.59
  1388.7  213.82  1438.9  214.15  1486.5  214.53  1553.7  214.68  1560.5  214.71
  1658.7  215.24  1705.6  215.56  1763.7  215.97  1810.6  216.28  1928.9   217.3
  1945.6  217.48  1948.5  220.15
#Mann= 5 , 1 , 0 
       0     .07       0   179.1     .09       0   415.6      .1       0
     666     .04       0     727     .06       0
Bank Sta=666,727
XS Rating Curve= 0 ,0
XS HTab Starting El and Incr=204.65,0.77, 20 
XS HTab Horizontal Distribution= 5 , 5 , 5 
Exp/Cntr=0.3,0.1

Type RM Length L Ch R = 1 ,5.49666*,80,153.33,63.33
XS GIS Cut Line=5
0.577553497390840.575546161225940.47683686707306 0.4954658319743
  0.4709602368050.490793291945190.465083606536940.48612075191608
0.256685305810890.33145388767069
Node Last Edited Time=Apr/29/2002 09:20:22
#Sta/Elev= 79 
       0  218.37   12.18  216.63   12.21  216.63   40.19  214.92    40.2  214.92
    60.4  214.49  147.33  212.29   164.4  211.95  347.62  212.19  360.19  211.41
  371.94  211.07  381.49  212.43  387.26  212.45  387.27  212.45  439.59  209.93
  439.62  209.93  443.26  210.72  443.28  210.72  466.21  210.63  515.13  210.25
  533.95  210.01  611.33  209.27  618.65  207.49  618.68  207.49  635.46  206.63
  635.47  206.63  637.67  205.33  637.67  204.07   649.4  204.29  658.51  204.69
  658.56  204.69  674.81  207.33  680.26  208.78  680.27  208.78  682.67  210.23
  730.77  210.43  730.82  210.43   739.8  210.55  763.72     211  777.15  210.58
  794.81     211  832.26  211.87  832.26  212.64  833.85  212.68  833.88  212.68
  898.64  213.49  898.68  213.49  947.54  213.76  969.32  213.67  969.34  213.67
 1026.47  213.55    1040  213.53 1091.98  213.03 1092.03  213.03 1162.71  212.53
 1162.74  212.53 1165.67  212.53 1239.26  212.51 1239.28  212.51 1247.74  212.59
 1316.84  213.53 1316.88  213.53  1350.6  213.76 1401.26   214.1 1449.32  214.52
 1449.36  214.52  1517.1  214.59 1517.15  214.59 1524.01  214.62 1623.12  215.09
 1623.14  215.09 1670.48  215.41 1729.13  215.81 1729.15  215.81 1776.47  216.11
 1895.88     217 1912.72  217.15 1912.74  217.16 1915.67   220.7
#Mann= 7 , 1 , 0 
       0    .067       0   164.4     .08       0   164.4    .073       0
  381.49      .1       0  611.33     .04       0  682.67     .06       0
 1915.67     .06       0
Bank Sta=611.33,682.67
XS Rating Curve= 0 ,0
XS HTab Starting El and Incr=204.57,0.81, 20 
XS HTab Horizontal Distribution= 5 , 5 , 5 
Exp/Cntr=0.3,0.1

Type RM Length L Ch R = 1 ,5.46833*,80,153.33,63.33
XS GIS Cut Line=5
 0.58948362289780.543800856944330.497772234105440.47088064319765
0.491045488121860.465532171634830.48431874213827  0.460183700072
0.275524915123070.30200964589376
Node Last Edited Time=Apr/29/2002 09:20:22
#Sta/Elev= 78 
       0  218.33   11.09  216.21   11.12  216.21   36.59  214.21   36.61  214.21
      55  213.77  134.15  211.69   149.7  211.33  316.53  212.27  327.98  211.93
  338.68  211.82  347.37  212.54  352.63  212.58  400.28  209.51  400.31  209.52
  403.63  210.51  403.64  210.51  424.52  210.43  469.06  210.17  486.21  209.97
  556.67  209.23  565.32   207.1  565.36  207.09  585.22  206.22  585.24  206.22
  587.83  204.62  587.83  203.98     601  204.23  611.23  204.54  611.28  204.55
  629.51  207.51  635.63  208.79  635.65   208.8  638.33  210.37  686.88  210.71
  686.93  210.71     696  210.88  720.15   211.4   733.7  211.35  751.53  211.78
  789.32  212.67  789.32  213.05  790.92  213.09  790.95  213.09  856.32  213.69
  856.36  213.69  905.67  213.73  927.66  213.64  927.68  213.64  985.35  213.53
     999  213.51 1051.47  212.92 1051.52  212.92 1122.86  212.32 1122.89  212.32
 1125.84  212.32 1200.12   212.3 1200.14   212.3 1208.67  212.42 1278.42  213.46
 1278.46  213.46 1312.49   213.7 1363.63  214.05 1412.13  214.51 1412.18  214.51
 1480.55  214.49  1480.6  214.49 1487.53  214.52 1587.56  214.95 1587.58  214.95
 1635.36  215.26 1694.55  215.66 1694.57  215.66 1742.34  215.93 1862.86  216.71
 1879.86  216.83 1879.88  216.85 1882.83  221.25
#Mann= 7 , 1 , 0 
       0    .063       0   149.7     .07       0   149.7    .087       0
  347.37      .1       0  556.67     .04       0  638.33     .06       0
 1882.83     .06       0
Bank Sta=556.67,638.33
XS Rating Curve= 0 ,0
XS HTab Starting El and Incr=204.48,0.84, 20 
XS HTab Horizontal Distribution= 5 , 5 , 5 
Exp/Cntr=0.3,0.1

Type RM Length L Ch R = 1 ,5.44    ,270,170,500
BEGIN DESCRIPTION:
River Mile 5.44
END DESCRIPTION:
XS GIS Cut Line=5
0.601413748404770.512055552662720.518709240191340.44629675764118
0.511130739438710.440271051324460.503552238686090.43424534500775
0.295818574067260.27073828353223
Node Last Edited Time=Apr/18/2000 14:33:20
#Sta/Elev= 31 
       0   218.3      10   215.8      33   213.5     135   210.7     318   212.7
     361   209.1     364   210.3     423   210.1     502   209.2     512   206.7
     535   205.8     538   203.9     564   204.4     591   208.8     594   210.5
     643     211     748   213.5     814   213.9     886   213.6     958   213.5
    1011   212.8    1083   212.1    1161   212.1    1240   213.4    1326     214
    1375   214.5    1444   214.4    1552   214.8    1660   215.5    1847   216.5
    1850   221.8
#Mann= 4 , 1 , 0 
       0     .06       0     135      .1       0     502     .04       0
     594     .06       0
Bank Sta=502,594
XS Rating Curve= 0 ,0
XS HTab Starting El and Incr=204.4,0.87, 20 
XS HTab Horizontal Distribution= 5 , 5 , 5 
Exp/Cntr=0.5,0.3

Type RM Length L Ch R = 1 ,5.41    ,100,100,100
BEGIN DESCRIPTION:
Upstream of bridge embankment
END DESCRIPTION:
XS GIS Cut Line=5
0.623765038061680.484113546689070.549627530699040.42516641967773
0.533399654087440.412263548543020.517171777475840.39936067740832
0.321844756293420.23823508581352
Node Last Edited Time=Apr/18/2000 14:33:20
#Sta/Elev= 66 
       0  217.55      12  216.05    39.5  214.32    76.4  213.13   161.5  211.17
   180.4  211.04   244.8  211.13   315.2     212     355   212.5     450   213.4
   456.6   212.9   459.8   211.6   466.4   210.1   469.7   209.3   476.2   208.9
   479.5   208.6   486.1   208.7   489.4   207.9   495.9   208.8   499.2   208.6
   505.8   207.8   509.1   207.6   515.6   206.9   518.9   204.3   525.5   203.6
   528.7   203.4   535.3   203.1   538.6   202.9   545.1     203   548.4   202.7
     555   203.1   561.6   204.4   564.8   203.8   571.4     203   574.7   202.9
   581.2   203.6   584.5     204   591.1   204.7   594.4   205.8   600.9   206.5
   604.2   207.5   610.8     208   614.1   208.7   620.6     209   623.9   209.3
   630.5   209.6   633.7   211.3   640.3   212.2   643.6   213.1     647   213.5
     670     212     748     213     814   213.4     886   213.1     958   213.1
    1011   212.3    1083   211.6    1161   211.6    1240   212.9    1326   213.5
    1375     214    1444   213.9    1552   214.3    1660     215    1847     216
    1850   220.5
#Mann= 4 , 1 , 0 
       0     .15       0   161.5     .25       0     450     .04       0
     647     .15       0
#XS Ineff= 2 , 0 
             420   216.7     677           216.7
Permanent Ineff=
       F       F
Bank Sta=450,647
XS Rating Curve= 0 ,0
XS HTab Starting El and Incr=203.2,0.87, 20 
XS HTab Horizontal Distribution= 5 , 5 , 5 
Exp/Cntr=0.5,0.3

Type RM Length L Ch R = 1 ,5.39    ,106.67,166.67,193.33
BEGIN DESCRIPTION:
Downstream of bridge embankment
END DESCRIPTION:
XS GIS Cut Line=5
0.636864399619750.467638545052930.562726892257120.40869141804159
0.546499015645520.395788546906880.530271139033920.38288567577218
  0.3401254662020.22408604322151
Node Last Edited Time=Apr/18/2000 14:33:20
#Sta/Elev= 63 