Flow Title=Debug Mode - PostProcess Steady Flow
Version=Version 3.0 Beta
Number of Profiles= 38 
Profile Names=Max WS,02Sep1998 2400,03Sep1998 0200,03Sep1998 0400,03Sep1998 0600,03Sep1998 0800,03Sep1998 1000,03Sep1998 1200,03Sep1998 1400,03Sep1998 1600,03Sep1998 1800,03Sep1998 2000,03Sep1998 2200,03Sep1998 2400,04Sep1998 0200,04Sep1998 0400,04Sep1998 0600,04Sep1998 0800,04Sep1998 1000,04Sep1998 1200,04Sep1998 1400,04Sep1998 1600,04Sep1998 1800,04Sep1998 2000,04Sep1998 2200,04Sep1998 2400,05Sep1998 0200,05Sep1998 0400,05Sep1998 0600,05Sep1998 0800,05Sep1998 1000,05Sep1998 1200,05Sep1998 1400,05Sep1998 1600,05Sep1998 1800,05Sep1998 2000,05Sep1998 2200,05Sep1998 2400
River Rch & RM=Fall River,Upper Reach     ,10.4    
3439.527  630.86  891.58 1149.32 1402.12 1648.05 1885.25  2111.9 2326.28 2526.77
 2711.83 2880.06 3030.17 3161.03 3271.64 3361.15 3428.89 3474.33 3497.14 3497.14
 3474.33 3428.89 3361.15 3271.64 3161.03 3030.17 2880.06 2711.83 2526.77 2326.28
  2111.9 1885.25 1648.05 1402.12 1149.32  891.58  630.86     500
River Rch & RM=Fall River,Upper Reach     ,10.3    
3437.037634.0645871.14941138.0711394.0291641.2491878.0432105.1922318.972 2519.74
2704.8382872.4273024.0323156.5673267.6853357.9483426.3833474.0833497.3963497.958
3475.729 3430.963363.9253274.6713165.1023035.2652886.1562718.3022533.8562333.116
2118.1131891.275 1654.951409.4861158.425905.4305648.7763500.6704
River Rch & RM=Fall River,Upper Reach     ,10.2    
3436.777635.3475857.20481128.3721386.5411635.0751871.3962098.8482311.9952512.933
2698.0942865.0673018.0933152.3143263.9123354.8683423.9723473.8943497.6753498.771
3477.0913432.9563366.581 3277.553169.012 3040.192892.0272724.5332540.7562339.623
2123.9621896.8571661.2621416.2211166.132917.7935655.4976500.8727
River Rch & RM=Fall River,Upper Reach     ,10.11   
3436.736635.5307853.89941126.4621385.0631633.8691870.0842097.5752310.5842511.547
2696.722 2863.573016.8853151.456 3263.153354.2443423.4843473.8613497.7363498.939
3477.3683433.3643367.1193278.1313169.8043041.1922893.221  2725.82542.1642340.936
2125.1321897.9641662.5021417.5411167.636920.2769656.5317500.9112
River Rch & RM=Fall River,Upper Reach     ,10.09   
3436.736635.5307853.89941126.4621385.0631633.8691870.0842097.5752310.5842511.547
2696.722 2863.573016.8853151.456 3263.153354.2443423.4843473.8613497.7363498.939
3477.3683433.3643367.1193278.1313169.8043041.1922893.221  2725.82542.1642340.936
2125.1321897.9641662.5021417.5411167.636920.2769656.5317500.9112
River Rch & RM=Fall River,Upper Reach     ,10      
3436.543636.2992852.01291120.8141379.3121629.4771864.9562092.8662305.9652507.251
2692.4752859.0373013.3443148.8663261.123 3352.593422.1863473.7933497.9093499.391
3478.1093434.427 3368.523279.9123172.1693044.2572896.8012729.7232546.791 2345.26
2129.5491902.0461668.459 1422.311171.956926.1569659.0286501.0314
River Rch & RM=Fall River,Upper Reach     ,9.9     
3436.308638.1826847.84191113.4861369.6731621.6881856.3522084.8352298.1412499.948
2685.2732851.3443007.3743144.5353257.7253349.8233420.0123473.7183498.2273500.167
3479.3633436.2183370.8743282.9063176.1423049.4392902.8972736.3732554.7222352.579
2137.0741908.7921678.8251430.1351179.385933.6752664.6562501.2669
River Rch & RM=Fall River,Upper Reach     ,9.8     
3436.223640.3308 844.079  1107.1 1361.091614.2251848.6942077.5092291.0592493.313
2678.744 2844.35    30023140.661 3254.693347.3613418.0733473.6993498.5483500.886
3480.497 3437.833372.9873285.594 3179.72 3054.122908.4772742.401 2562.022359.202
2143.9351914.6761688.598  1436.91187.644940.4228669.9312501.5048
River Rch & RM=Fall River,Lower Reach     ,9.79    
4717.854941.34581202.011  1528.71852.0752173.2282473.9692769.8433048.082 3316.23
3568.3583801.6264026.5294233.9554416.0054576.0254713.8964687.9334673.7264634.218
 4569.534480.457 4367.434230.7234074.2213897.7753701.224 3484.613252.1352996.501
2732.1652453.3512182.9321886.7021597.6141312.4311006.193816.2068
River Rch & RM=Fall River,Lower Reach     ,9.7     
4717.845943.92311193.0571518.8051840.8242164.1072464.5452760.7613039.2313308.026
3560.1923792.9864019.9034229.2234412.327 4573.03 4711.544687.9434674.1434635.111
4570.9214482.428    43704233.9944078.6283903.5653708.1753492.1413261.1773004.775
2740.6672460.4572195.4361895.2931607.5581320.6351012.929816.5291
River Rch & RM=Fall River,Lower Reach     ,9.6     
4717.833 946.3651185.3531508.9471831.0352156.7152456.8512753.3033031.9343301.298
3539.4023783.3774012.5584224.0474408.2964569.7544708.9714687.9554674.5974636.085
4572.4424484.5864372.8154237.572 4083.483909.9943715.9573511.3443268.4553011.596
2747.6432466.1972205.9351902.613 1615.871327.6781019.913 816.939
River Rch & RM=Fall River,Lower Reach     ,9.5     
4717.121 946.3651185.3531508.9471831.0352156.7152456.8512753.3033031.9343301.298
3539.4023783.3774012.5584224.0474408.2964569.7544708.9714687.9554674.5974636.085
4572.4424484.5864372.8154237.572 4083.483909.9943715.9573511.3443268.4553011.596
2747.6432466.1972205.9351902.613 1615.871327.6781019.913 816.939
River Rch & RM=Fall River,Lower Reach     ,9.4     
4716.525949.82111179.4851501.5151824.2752151.1852451.0492749.0583027.886 3297.89
3536.2633779.8614009.743 4216.364402.1124564.4334704.4874688.084 4675.364637.724
4574.9524487.9554377.0554242.8074089.5183912.3963718.2993514.2473272.1633015.383
2751.5982470.4172210.5081907.6691622.141 1333.181025.607817.4074
River Rch & RM=Fall River,Lower Reach     ,9.3     
4716.214954.39331170.2181489.4741813.3632141.9062441.2632741.9143021.0763292.135
3530.963 3773.924004.9824212.223 4398.654561.3954701.8964688.1554675.8024638.666
4576.392 4489.874379.4354245.6764092.688 3916.453722.2423519.1473278.4563021.752
2758.2492477.5212218.174 1916.141632.2811341.8681033.106817.9438
River Rch & RM=Butte Cr.,Butte Cr.       ,0.4     
    1300     300  366.67  433.33     500  566.67  633.33     700  766.67  833.33
     900  966.67 1033.33    1100 1166.67 1233.33    1300 1213.01 1173.51 1131.16
  1086.3 1039.25  990.38  940.07  888.69  836.63  784.29  732.08  680.38  629.59
   580.1  532.28   486.5  443.11  402.43  364.78  330.44  314.59
River Rch & RM=Butte Cr.,Butte Cr.       ,0.3     
1298.843300.2058362.8948429.5171497.5711564.8602631.6111698.4798 764.384830.6626
897.3489964.67841031.1361098.3231165.3241232.1161298.8431213.4971174.0881131.838
1087.1021040.187991.4666 941.413890.0836838.2186786.3472734.7029 682.523631.1031
581.8582533.6959488.2002444.8145 404.842367.0996332.8125314.6104
River Rch & RM=Butte Cr.,Butte Cr.       ,0.24    
1297.752300.3791360.3233425.2307495.2805 563.259629.9889697.1168761.9841 827.738
894.5113962.61971028.8441096.6931164.0181230.9611297.7521213.9181174.5991132.455
1087.8371041.065992.4994942.7461891.4707839.8327788.5115737.5604684.7952632.5976
583.6403534.9823489.8428 446.538407.2769370.0708334.5314314.6299
River Rch & RM=Butte Cr.,Butte Cr.       ,0.20    
1295.983300.3791360.3233425.2307495.2805 563.259629.9889697.1168761.9841 827.738
894.5113962.61971028.8441096.6931164.0181230.9611297.7521213.9181174.5991132.455
1087.8371041.065992.4994942.7461891.4707839.8327788.5115737.5604684.7952632.5976
583.6403534.9823489.8428 446.538407.2769370.0708334.5314314.6299
River Rch & RM=Butte Cr.,Butte Cr.       ,0.1     
1295.711300.6317359.1315422.7114492.7898561.1164627.5566694.9169759.6273825.4884
892.2094960.10271026.7711094.9921162.6531229.7771296.7391214.1481174.9551132.949
1088.4821041.882993.4941943.9446892.9538841.6945790.4888739.7673687.2578634.8339
 585.798536.8994492.0093448.4176408.8598370.9813 335.257314.6512
River Rch & RM=Butte Cr.,Butte Cr.       ,0.0     
1281.631301.0149357.9318421.5996490.9844 559.002625.2746692.3342757.0233822.9169
889.6141957.27611024.5291093.2931161.3151228.6641295.8231214.2341175.1781133.332
1089.0331042.627994.4435945.1284894.5011843.6548792.7476742.2086690.1144637.2987
588.2304538.6741494.3337449.8016409.9697372.0079336.2615314.7019
Boundary for River Rch & Prof#=Fall River,Lower Reach     , 1 
Up Type= 0 
Dn Type= 1 
Dn Known WS=82.61941
Boundary for River Rch & Prof#=Fall River,Lower Reach     , 2 
Up Type= 0 
Dn Type= 1 
Dn Known WS=76.39815
Boundary for River Rch & Prof#=Fall River,Lower Reach     , 3 
Up Type= 0 
Dn Type= 1 
Dn Known WS=77.17387
Boundary for River Rch & Prof#=Fall River,Lower Reach     , 4 
Up Type= 0 
Dn Type= 1 
Dn Known WS=78.06052
Boundary for River Rch & Prof#=Fall River,Lower Reach     , 5 
Up Type= 0 
Dn Type= 1 
Dn Known WS=78.76957
Boundary for River Rch & Prof#=Fall River,Lower Reach     , 6 
Up Type= 0 
Dn Type= 1 
Dn Known WS=79.33034
Boundary for River Rch & Prof#=Fall River,Lower Reach     , 7 
Up Type= 0 
Dn Type= 1 
Dn Known WS=79.82311
Boundary for River Rch & Prof#=Fall River,Lower Reach     , 8 
Up Type= 0 
Dn Type= 1 
Dn Known WS=80.2434
Boundary for River Rch & Prof#=Fall River,Lower Reach     , 9 
Up Type= 0 
Dn Type= 1 
Dn Known WS=80.62967
Boundary for River Rch & Prof#=Fall River,Lower Reach     , 10 
Up Type= 0 
Dn Type= 1 
Dn Known WS=80.98532
Boundary for River Rch & Prof#=Fall River,Lower Reach     , 11 
Up Type= 0 
Dn Type= 1 
Dn Known WS=81.27435
Boundary for River Rch & Prof#=Fall River,Lower Reach     , 12 
Up Type= 0 
Dn Type= 1 
Dn Known WS=81.56838
Boundary for River Rch & Prof#=Fall River,Lower Reach     , 13 
Up Type= 0 
Dn Type= 1 
Dn Known WS=81.84801
Boundary for River Rch & Prof#=Fall River,Lower Reach     , 14 
Up Type= 0 
Dn Type= 1 
Dn Known WS=82.07294
Boundary for River Rch & Prof#=Fall River,Lower Reach     , 15 
Up Type= 0 
Dn Type= 1 
Dn Known WS=82.27508
Boundary for River Rch & Prof#=Fall River,Lower Reach     , 16 
Up Type= 0 
Dn Type= 1 
Dn Known WS=82.45154
Boundary for River Rch & Prof#=Fall River,Lower Reach     , 17 
Up Type= 0 
Dn Type= 1 
Dn Known WS=82.60389
Boundary for River Rch & Prof#=Fall River,Lower Reach     , 18 
Up Type= 0 
Dn Type= 1 
Dn Known WS=82.58899
Boundary for River Rch & Prof#=Fall River,Lower Reach     , 19 
Up Type= 0 
Dn Type= 1 
Dn Known WS=82.57559
Boundary for River Rch & Prof#=Fall River,Lower Reach     , 20 
Up Type= 0 
Dn Type= 1 
Dn Known WS=82.53532
Boundary for River Rch & Prof#=Fall River,Lower Reach     , 21 
Up Type= 0 
Dn Type= 1 
Dn Known WS=82.4678
Boundary for River Rch & Prof#=Fall River,Lower Reach     , 22 
Up Type= 0 
Dn Type= 1 
Dn Known WS=82.37399
Boundary for River Rch & Prof#=Fall River,Lower Reach     , 23 
Up Type= 0 
Dn Type= 1 
Dn Known WS=82.25424
Boundary for River Rch & Prof#=Fall River,Lower Reach     , 24 
Up Type= 0 
Dn Type= 1 
Dn Known WS=82.10921
Boundary for River Rch & Prof#=Fall River,Lower Reach     , 25 
Up Type= 0 
Dn Type= 1 
Dn Known WS=81.94332
Boundary for River Rch & Prof#=Fall River,Lower Reach     , 26 
Up Type= 0 
Dn Type= 1 
Dn Known WS=81.74088
Boundary for River Rch & Prof#=Fall River,Lower Reach     , 27 
Up Type= 0 
Dn Type= 1 
Dn Known WS=81.50584
Boundary for River Rch & Prof#=Fall River,Lower Reach     , 28 
Up Type= 0 
Dn Type= 1 
Dn Known WS=81.26006
Boundary for River Rch & Prof#=Fall River,Lower Reach     , 29 
Up Type= 0 
Dn Type= 1 
Dn Known WS=80.96877
Boundary for River Rch & Prof#=Fall River,Lower Reach     , 30 
Up Type= 0 
Dn Type= 1 
Dn Known WS=80.6306
Boundary for River Rch & Prof#=Fall River,Lower Reach     , 31 
Up Type= 0 
Dn Type= 1 
Dn Known WS=80.26601
Boundary for River Rch & Prof#=Fall River,Lower Reach     , 32 
Up Type= 0 
Dn Type= 1 
Dn Known WS=79.87757
Boundary for River Rch & Prof#=Fall River,Lower Reach     , 33 
Up Type= 0 
Dn Type= 1 
Dn Known WS=79.45589
Boundary for River Rch & Prof#=Fall River,Lower Reach     , 34 
Up Type= 0 
Dn Type= 1 
Dn Known WS=78.9587
Boundary for River Rch & Prof#=Fall River,Lower Reach     , 35 
Up Type= 0 
Dn Type= 1 
Dn Known WS=78.37315
Boundary for River Rch & Prof#=Fall River,Lower Reach     , 36 
Up Type= 0 
Dn Type= 1 
Dn Known WS=77.69411
Boundary for River Rch & Prof#=Fall River,Lower Reach     , 37 
Up Type= 0 
Dn Type= 1 
Dn Known WS=76.72455
Boundary for River Rch & Prof#=Fall River,Lower Reach     , 38 
Up Type= 0 
Dn Type= 1 
Dn Known WS=75.82755
Set Internal Change=Fall River      ,Upper Reach     ,10.4    , 1 , 3 ,85.64692
Set Internal Change=Fall River      ,Upper Reach     ,10.3    , 1 , 3 ,85.51311
Set Internal Change=Fall River      ,Upper Reach     ,10.2    , 1 , 3 ,85.37785
Set Internal Change=Fall River      ,Upper Reach     ,10.11   , 1 , 3 ,85.35087
Set Internal Change=Fall River      ,Upper Reach     ,10.09   , 1 , 3 ,85.30017
Set Internal Change=Fall River      ,Upper Reach     ,10      , 1 , 3 ,85.22224
Set Internal Change=Fall River      ,Upper Reach     ,9.9     , 1 , 3 ,85.07851
Set Internal Change=Fall River      ,Upper Reach     ,9.8     , 1 , 3 ,84.91087
Set Internal Change=Fall River      ,Upper Reach     ,10.4    , 2 , 3 ,78.78046
Set Internal Change=Fall River      ,Upper Reach     ,10.3    , 2 , 3 ,78.58018
Set Internal Change=Fall River      ,Upper Reach     ,10.2    , 2 , 3 ,78.42107
Set Internal Change=Fall River      ,Upper Reach     ,10.11   , 2 , 3 ,78.37678
Set Internal Change=Fall River      ,Upper Reach     ,10.09   , 2 , 3 ,77.84339
Set Internal Change=Fall River      ,Upper Reach     ,10      , 2 , 3 ,77.76196
Set Internal Change=Fall River      ,Upper Reach     ,9.9     , 2 , 3 ,77.50248
Set Internal Change=Fall River      ,Upper Reach     ,9.8     , 2 , 3 ,77.25034
Set Internal Change=Fall River      ,Upper Reach     ,10.4    , 3 , 3 ,80.02902
Set Internal Change=Fall River      ,Upper Reach     ,10.3    , 3 , 3 ,79.84518
Set Internal Change=Fall River      ,Upper Reach     ,10.2    , 3 , 3 ,79.68725
Set Internal Change=Fall River      ,Upper Reach     ,10.11   , 3 , 3 ,79.64993
Set Internal Change=Fall River      ,Upper Reach     ,10.09   , 3 , 3 ,78.72456
Set Internal Change=Fall River      ,Upper Reach     ,10      , 3 , 3 ,78.64802
Set Internal Change=Fall River      ,Upper Reach     ,9.9     , 3 , 3 ,78.35496
Set Internal Change=Fall River      ,Upper Reach     ,9.8     , 3 , 3 ,78.06177
Set Internal Change=Fall River      ,Upper Reach     ,10.4    , 4 , 3 ,81.05449
Set Internal Change=Fall River      ,Upper Reach     ,10.3    , 4 , 3 ,80.89542
Set Internal Change=Fall River      ,Upper Reach     ,10.2    , 4 , 3 ,80.73786
Set Internal Change=Fall River      ,Upper Reach     ,10.11   , 4 , 3 ,80.70779
Set Internal Change=Fall River      ,Upper Reach     ,10.09   , 4 , 3 ,79.71741
Set Internal Change=Fall River      ,Upper Reach     ,10      , 4 , 3 ,79.58868
Set Internal Change=Fall River      ,Upper Reach     ,9.9     , 4 , 3 ,79.29534
Set Internal Change=Fall River      ,Upper Reach     ,9.8     , 4 , 3 ,78.98645
Set Internal Change=Fall River      ,Upper Reach     ,10.4    , 5 , 3 ,81.61026
Set Internal Change=Fall River      ,Upper Reach     ,10.3    , 5 , 3 ,81.44155
Set Internal Change=Fall River      ,Upper Reach     ,10.2    , 5 , 3 ,81.26492
Set Internal Change=Fall River      ,Upper Reach     ,10.11   , 5 , 3 ,81.23079
Set Internal Change=Fall River      ,Upper Reach     ,10.09   , 5 , 3 ,80.47948
Set Internal Change=Fall River      ,Upper Reach     ,10      , 5 , 3 ,80.32884
Set Internal Change=Fall River      ,Upper Reach     ,9.9     , 5 , 3 ,80.04764
Set Internal Change=Fall River      ,Upper Reach     ,9.8     , 5 , 3 ,79.74515
Set Internal Change=Fall River      ,Upper Reach     ,10.4    , 6 , 3 ,82.04372
Set Internal Change=Fall River      ,Upper Reach     ,10.3    , 6 , 3 ,81.86658
Set Internal Change=Fall River      ,Upper Reach     ,10.2    , 6 , 3 ,81.67669
Set Internal Change=Fall River      ,Upper Reach     ,10.11   , 6 , 3 ,81.63965
Set Internal Change=Fall River      ,Upper Reach     ,10.09   , 6 , 3 ,81.09124
Set Internal Change=Fall River      ,Upper Reach     ,10      , 6 , 3 ,80.94047
Set Internal Change=Fall River      ,Upper Reach     ,9.9     , 6 , 3 ,80.66161
Set Internal Change=Fall River      ,Upper Reach     ,9.8     , 6 , 3 ,80.35996
Set Internal Change=Fall River      ,Upper Reach     ,10.4    , 7 , 3 ,82.44716
Set Internal Change=Fall River      ,Upper Reach     ,10.3    , 7 , 3 ,82.26308
Set Internal Change=Fall River      ,Upper Reach     ,10.2    , 7 , 3 ,82.06236
Set Internal Change=Fall River      ,Upper Reach     ,10.11   , 7 , 3 ,82.02303
Set Internal Change=Fall River      ,Upper Reach     ,10.09   , 7 , 3 ,81.6925
Set Internal Change=Fall River      ,Upper Reach     ,10      , 7 , 3 ,81.55749
Set Internal Change=Fall River      ,Upper Reach     ,9.9     , 7 , 3 ,81.30975
Set Internal Change=Fall River      ,Upper Reach     ,9.8     , 7 , 3 ,81.03893
Set Internal Change=Fall River      ,Upper Reach     ,10.4    , 8 , 3 ,82.8178
Set Internal Change=Fall River      ,Upper Reach     ,10.3    , 8 , 3 ,82.63139
Set Internal Change=Fall River      ,Upper Reach     ,10.2    , 8 , 3 ,82.42835
Set Internal Change=Fall River      ,Upper Reach     ,10.11   , 8 , 3 ,82.38826
Set Internal Change=Fall River      ,Upper Reach     ,10.09   , 8 , 3 ,82.18208
Set Internal Change=Fall River      ,Upper Reach     ,10      , 8 , 3 ,82.05242
Set Internal Change=Fall River      ,Upper Reach     ,9.9     , 8 , 3 ,81.81626
Set Internal Change=Fall River      ,Upper Reach     ,9.8     , 8 , 3 ,81.55836
Set Internal Change=Fall River      ,Upper Reach     ,10.4    , 9 , 3 ,83.20565
Set Internal Change=Fall River      ,Upper Reach     ,10.3    , 9 , 3 ,83.02231
Set Internal Change=Fall River      ,Upper Reach     ,10.2    , 9 , 3 ,82.82345
Set Internal Change=Fall River      ,Upper Reach     ,10.11   , 9 , 3 ,82.78413
Set Internal Change=Fall River      ,Upper Reach     ,10.09   , 9 , 3 ,82.66939
Set Internal Change=Fall River      ,Upper Reach     ,10      , 9 , 3 ,82.55035
Set Internal Change=Fall River      ,Upper Reach     ,9.9     , 9 , 3 ,82.33281
Set Internal Change=Fall River      ,Upper Reach     ,9.8     , 9 , 3 ,82.09158
Set Internal Change=Fall River      ,Upper Reach     ,10.4    , 10 , 3 ,83.61545
Set Internal Change=Fall River      ,Upper Reach     ,10.3    , 10 , 3 ,83.43996
Set Internal Change=Fall River      ,Upper Reach     ,10.2    , 10 , 3 ,83.25117
Set Internal Change=Fall River      ,Upper Reach     ,10.11   , 10 , 3 ,83.21378
Set Internal Change=Fall River      ,Upper Reach     ,10.09   , 10 , 3 ,83.14175
Set Internal Change=Fall River      ,Upper Reach     ,10      , 10 , 3 ,83.031
Set Internal Change=Fall River      ,Upper Reach     ,9.9     , 10 , 3 ,82.82997
Set Internal Change=Fall River      ,Upper Reach     ,9.8     , 10 , 3 ,82.6071
Set Internal Change=Fall River      ,Upper Reach     ,10.4    , 11 , 3 ,83.98788
Set Internal Change=Fall River      ,Upper Reach     ,10.3    , 11 , 3 ,83.81979
Set Internal Change=Fall River      ,Upper Reach     ,10.2    , 11 , 3 ,83.64117
Set Internal Change=Fall River      ,Upper Reach     ,10.11   , 11 , 3 ,83.60577
Set Internal Change=Fall River      ,Upper Reach     ,10.09   , 11 , 3 ,83.55713
Set Internal Change=Fall River      ,Upper Reach     ,10      , 11 , 3 ,83.45412
Set Internal Change=Fall River      ,Upper Reach     ,9.9     , 11 , 3 ,83.26624
Set Internal Change=Fall River      ,Upper Reach     ,9.8     , 11 , 3 ,83.05504
Set Internal Change=Fall River      ,Upper Reach     ,10.4    , 12 , 3 ,84.40091
Set Internal Change=Fall River      ,Upper Reach     ,10.3    , 12 , 3 ,84.24409
Set Internal Change=Fall River      ,Upper Reach     ,10.2    , 12 , 3 ,84.07932
Set Internal Change=Fall River      ,Upper Reach     ,10.11   , 12 , 3 ,84.04669
Set Internal Change=Fall River      ,Upper Reach     ,10.09   , 12 , 3 ,84.0201
Set Internal Change=Fall River      ,Upper Reach     ,10      , 12 , 3 ,83.92651
Set Internal Change=Fall River      ,Upper Reach     ,9.9     , 12 , 3 ,83.75635
Set Internal Change=Fall River      ,Upper Reach     ,9.8     , 12 , 3 ,83.56477
Set Internal Change=Fall River      ,Upper Reach     ,10.4    , 13 , 3 ,84.76789
Set Internal Change=Fall River      ,Upper Reach     ,10.3    , 13 , 3 ,84.62022
Set Internal Change=Fall River      ,Upper Reach     ,10.2    , 13 , 3 ,84.46741
Set Internal Change=Fall River      ,Upper Reach     ,10.11   , 13 , 3 ,84.4371
Set Internal Change=Fall River      ,Upper Reach     ,10.09   , 13 , 3 ,84.41866
Set Internal Change=Fall River      ,Upper Reach     ,10      , 13 , 3 ,84.33218
Set Internal Change=Fall River      ,Upper Reach     ,9.9     , 13 , 3 ,84.17431
Set Internal Change=Fall River      ,Upper Reach     ,9.8     , 13 , 3 ,83.9944
Set Internal Change=Fall River      ,Upper Reach     ,10.4    , 14 , 3 ,85.05585
Set Internal Change=Fall River      ,Upper Reach     ,10.3    , 14 , 3 ,84.91333
Set Internal Change=Fall River      ,Upper Reach     ,10.2    , 14 , 3 ,84.76697
Set Internal Change=Fall River      ,Upper Reach     ,10.11   , 14 , 3 ,84.73788
Set Internal Change=Fall River      ,Upper Reach     ,10.09   , 14 , 3 ,84.72578
Set Internal Change=Fall River      ,Upper Reach     ,10      , 14 , 3 ,84.6431
Set Internal Change=Fall River      ,Upper Reach     ,9.9     , 14 , 3 ,84.49129
Set Internal Change=Fall River      ,Upper Reach     ,9.8     , 14 , 3 ,84.31712
Set Internal Change=Fall River      ,Upper Reach     ,10.4    , 15 , 3 ,85.28436
Set Internal Change=Fall River      ,Upper Reach     ,10.3    , 15 , 3 ,85.14496
Set Internal Change=Fall River      ,Upper Reach     ,10.2    , 15 , 3 ,85.00256
Set Internal Change=Fall River      ,Upper Reach     ,10.11   , 15 , 3 ,84.97423
Set Internal Change=Fall River      ,Upper Reach     ,10.09   , 15 , 3 ,84.95546
Set Internal Change=Fall River      ,Upper Reach     ,10      , 15 , 3 ,84.87471
Set Internal Change=Fall River      ,Upper Reach     ,9.9     , 15 , 3 ,84.72651
Set Internal Change=Fall River      ,Upper Reach     ,9.8     , 15 , 3 ,84.55569
Set Internal Change=Fall River      ,Upper Reach     ,10.4    , 16 , 3 ,85.48112
Set Internal Change=Fall River      ,Upper Reach     ,10.3    , 16 , 3 ,85.3448
Set Internal Change=Fall River      ,Upper Reach     ,10.2    , 16 , 3 ,85.20638
Set Internal Change=Fall River      ,Upper Reach     ,10.11   , 16 , 3 ,85.17883
Set Internal Change=Fall River      ,Upper Reach     ,10.09   , 16 , 3 ,85.14206
Set Internal Change=Fall River      ,Upper Reach     ,10      , 16 , 3 ,85.0629
Set Internal Change=Fall River      ,Upper Reach     ,9.9     , 16 , 3 ,84.91753
Set Internal Change=Fall River      ,Upper Reach     ,9.8     , 16 , 3 ,84.74919
Set Internal Change=Fall River      ,Upper Reach     ,10.4    , 17 , 3 ,85.6356
Set Internal Change=Fall River      ,Upper Reach     ,10.3    , 17 , 3 ,85.50211
Set Internal Change=Fall River      ,Upper Reach     ,10.2    , 17 , 3 ,85.36734
Set Internal Change=Fall River      ,Upper Reach     ,10.11   , 17 , 3 ,85.34049
Set Internal Change=Fall River      ,Upper Reach     ,10.09   , 17 , 3 ,85.28892
Set Internal Change=Fall River      ,Upper Reach     ,10      , 17 , 3 ,85.21136
Set Internal Change=Fall River      ,Upper Reach     ,9.9     , 17 , 3 ,85.06851
Set Internal Change=Fall River      ,Upper Reach     ,9.8     , 17 , 3 ,84.90224
Set Internal Change=Fall River      ,Upper Reach     ,10.4    , 18 , 3 ,85.63437
Set Internal Change=Fall River      ,Upper Reach     ,10.3    , 18 , 3 ,85.49686
Set Internal Change=Fall River      ,Upper Reach     ,10.2    , 18 , 3 ,85.35756
Set Internal Change=Fall River      ,Upper Reach     ,10.11   , 18 , 3 ,85.32975
Set Internal Change=Fall River      ,Upper Reach     ,10.09   , 18 , 3 ,85.28054
Set Internal Change=Fall River      ,Upper Reach     ,10      , 18 , 3 ,85.2002
Set Internal Change=Fall River      ,Upper Reach     ,9.9     , 18 , 3 ,85.05186
Set Internal Change=Fall River      ,Upper Reach     ,9.8     , 18 , 3 ,84.8787
Set Internal Change=Fall River      ,Upper Reach     ,10.4    , 19 , 3 ,85.63149
Set Internal Change=Fall River      ,Upper Reach     ,10.3    , 19 , 3 ,85.49188
Set Internal Change=Fall River      ,Upper Reach     ,10.2    , 19 , 3 ,85.35027
Set Internal Change=Fall River      ,Upper Reach     ,10.11   , 19 , 3 ,85.32198
Set Internal Change=Fall River      ,Upper Reach     ,10.09   , 19 , 3 ,85.27348
Set Internal Change=Fall River      ,Upper Reach     ,10      , 19 , 3 ,85.19173
Set Internal Change=Fall River      ,Upper Reach     ,9.9     , 19 , 3 ,85.04068
Set Internal Change=Fall River      ,Upper Reach     ,9.8     , 19 , 3 ,84.86417
Set Internal Change=Fall River      ,Upper Reach     ,10.4    , 20 , 3 ,85.5972
Set Internal Change=Fall River      ,Upper Reach     ,10.3    , 20 , 3 ,85.45558
Set Internal Change=Fall River      ,Upper Reach     ,10.2    , 20 , 3 ,85.31162
Set Internal Change=Fall River      ,Upper Reach     ,10.11   , 20 , 3 ,85.28285
Set Internal Change=Fall River      ,Upper Reach     ,10.09   , 20 , 3 ,85.23801
Set Internal Change=Fall River      ,Upper Reach     ,10      , 20 , 3 ,85.15495
Set Internal Change=Fall River      ,Upper Reach     ,9.9     , 20 , 3 ,85.00143
Set Internal Change=Fall River      ,Upper Reach     ,9.8     , 20 , 3 ,84.82207
Set Internal Change=Fall River      ,Upper Reach     ,10.4    , 21 , 3 ,85.53053
Set Internal Change=Fall River      ,Upper Reach     ,10.3    , 21 , 3 ,85.38693
Set Internal Change=Fall River      ,Upper Reach     ,10.2    , 21 , 3 ,85.24046
Set Internal Change=Fall River      ,Upper Reach     ,10.11   , 21 , 3 ,85.21118
Set Internal Change=Fall River      ,Upper Reach     ,10.09   , 21 , 3 ,85.17317
Set Internal Change=Fall River      ,Upper Reach     ,10      , 21 , 3 ,85.08883
Set Internal Change=Fall River      ,Upper Reach     ,9.9     , 21 , 3 ,84.93303
Set Internal Change=Fall River      ,Upper Reach     ,9.8     , 21 , 3 ,84.75124
Set Internal Change=Fall River      ,Upper Reach     ,10.4    , 22 , 3 ,85.42834
Set Internal Change=Fall River      ,Upper Reach     ,10.3    , 22 , 3 ,85.28258
Set Internal Change=Fall River      ,Upper Reach     ,10.2    , 22 , 3 ,85.13317
Set Internal Change=Fall River      ,Upper Reach     ,10.11   , 22 , 3 ,85.10329
Set Internal Change=Fall River      ,Upper Reach     ,10.09   , 22 , 3 ,85.07612
Set Internal Change=Fall River      ,Upper Reach     ,10      , 22 , 3 ,84.99043
Set Internal Change=Fall River      ,Upper Reach     ,9.9     , 22 , 3 ,84.83228
Set Internal Change=Fall River      ,Upper Reach     ,9.8     , 22 , 3 ,84.64821
Set Internal Change=Fall River      ,Upper Reach     ,10.4    , 23 , 3 ,85.28668
Set Internal Change=Fall River      ,Upper Reach     ,10.3    , 23 , 3 ,85.13867
Set Internal Change=Fall River      ,Upper Reach     ,10.2    , 23 , 3 ,84.98627
Set Internal Change=Fall River      ,Upper Reach     ,10.11   , 23 , 3 ,84.9558
Set Internal Change=Fall River      ,Upper Reach     ,10.09   , 23 , 3 ,84.94444
Set Internal Change=Fall River      ,Upper Reach     ,10      , 23 , 3 ,84.8576
Set Internal Change=Fall River      ,Upper Reach     ,9.9     , 23 , 3 ,84.69717
Set Internal Change=Fall River      ,Upper Reach     ,9.8     , 23 , 3 ,84.51073
Set Internal Change=Fall River      ,Upper Reach     ,10.4    , 24 , 3 ,85.11352
Set Internal Change=Fall River      ,Upper Reach     ,10.3    , 24 , 3 ,84.96327
Set Internal Change=Fall River      ,Upper Reach     ,10.2    , 24 , 3 ,84.80788
Set Internal Change=Fall River      ,Upper Reach     ,10.11   , 24 , 3 ,84.77683
Set Internal Change=Fall River      ,Upper Reach     ,10.09   , 24 , 3 ,84.77574
Set Internal Change=Fall River      ,Upper Reach     ,10      , 24 , 3 ,84.68755
Set Internal Change=Fall River      ,Upper Reach     ,9.9     , 24 , 3 ,84.5244
Set Internal Change=Fall River      ,Upper Reach     ,9.8     , 24 , 3 ,84.33524
Set Internal Change=Fall River      ,Upper Reach     ,10.4    , 25 , 3 ,84.91275
Set Internal Change=Fall River      ,Upper Reach     ,10.3    , 25 , 3 ,84.76031
Set Internal Change=Fall River      ,Upper Reach     ,10.2    , 25 , 3 ,84.60167
Set Internal Change=Fall River      ,Upper Reach     ,10.11   , 25 , 3 ,84.56998
Set Internal Change=Fall River      ,Upper Reach     ,10.09   , 25 , 3 ,84.5626
Set Internal Change=Fall River      ,Upper Reach     ,10      , 25 , 3 ,84.47228
Set Internal Change=Fall River      ,Upper Reach     ,9.9     , 25 , 3 ,84.30555
Set Internal Change=Fall River      ,Upper Reach     ,9.8     , 25 , 3 ,84.1126
Set Internal Change=Fall River      ,Upper Reach     ,10.4    , 26 , 3 ,84.64627
Set Internal Change=Fall River      ,Upper Reach     ,10.3    , 26 , 3 ,84.48899
Set Internal Change=Fall River      ,Upper Reach     ,10.2    , 26 , 3 ,84.32352
Set Internal Change=Fall River      ,Upper Reach     ,10.11   , 26 , 3 ,84.29047
Set Internal Change=Fall River      ,Upper Reach     ,10.09   , 26 , 3 ,84.27924
Set Internal Change=Fall River      ,Upper Reach     ,10      , 26 , 3 ,84.18472
Set Internal Change=Fall River      ,Upper Reach     ,9.9     , 26 , 3 ,84.01075
Set Internal Change=Fall River      ,Upper Reach     ,9.8     , 26 , 3 ,83.8109
Set Internal Change=Fall River      ,Upper Reach     ,10.4    , 27 , 3 ,84.33199
Set Internal Change=Fall River      ,Upper Reach     ,10.3    , 27 , 3 ,84.16833
Set Internal Change=Fall River      ,Upper Reach     ,10.2    , 27 , 3 ,83.99402
Set Internal Change=Fall River      ,Upper Reach     ,10.11   , 27 , 3 ,83.95921
Set Internal Change=Fall River      ,Upper Reach     ,10.09   , 27 , 3 ,83.93604
Set Internal Change=Fall River      ,Upper Reach     ,10      , 27 , 3 ,83.83581
Set Internal Change=Fall River      ,Upper Reach     ,9.9     , 27 , 3 ,83.65112
Set Internal Change=Fall River      ,Upper Reach     ,9.8     , 27 , 3 ,83.44013
Set Internal Change=Fall River      ,Upper Reach     ,10.4    , 28 , 3 ,83.98493
Set Internal Change=Fall River      ,Upper Reach     ,10.3    , 28 , 3 ,83.81448
Set Internal Change=Fall River      ,Upper Reach     ,10.2    , 28 , 3 ,83.6314
Set Internal Change=Fall River      ,Upper Reach     ,10.11   , 28 , 3 ,83.59482
Set Internal Change=Fall River      ,Upper Reach     ,10.09   , 28 , 3 ,83.54527
Set Internal Change=Fall River      ,Upper Reach     ,10      , 28 , 3 ,83.43835
Set Internal Change=Fall River      ,Upper Reach     ,9.9     , 28 , 3 ,83.24107