Geom Title=Harvard Gulch_Existing
Program Version=4.10
Viewing Rectangle= 3141289.97980036 , 3161627.71711692 , 1670934.10552979 , 1668148.04234207 

BEGIN GEOM DESCRIPTION:
Exiting conditon geometry
One-foot, LIDAR-derived topographic contour data collected by the United State Geological Survey (USGS) in the fall of 2013 was used to cut cross sections using HEC-GeoRAS.
END GEOM DESCRIPTION:
Junct Name=J1              
Junct Desc=, 0 , 0 ,-1 ,0
Junct X Y & Text X Y=3146399.5,1669960,3146399.5,1669960
Up River,Reach=HG              ,02              
Up River,Reach=HG Split        ,01              
Dn River,Reach=HG              ,01              
Junc L&A=163.62,
Junc L&A=153.33,

River Reach=HG              ,02              
Reach XY= 14017 
3161428.32753539 1668512.96920083161427.889544141668512.96559189
3161425.977146391668512.950500063161425.63856439 1668512.9478754
3161423.40694155 1668512.92983083161423.38102297 1668512.9298308
3161423.19368739 1668512.92819043161421.028009311668512.91113006
3161420.751106981668512.908833473161418.648748961668512.89210123
3161418.040810561668512.887179973161416.26981673 1668512.8730724
3161415.363322471668512.865854563161413.877104971668512.85404356
3161412.651713711668512.844201063161411.488658311668512.83501473
3161409.970944811668512.822875653161409.106117141668512.81598589
3161407.31937531 1668512.80187833161406.754087721668512.79728514
3161404.634669391668512.780224823161404.388934971668512.77858439
3161402.42896514 1668512.76283643161402.044123381668512.75988364
3161401.970960811668512.759227473161399.749508561668512.74151097
3161399.258695891668512.737573983161397.434224471668512.72313832
3161396.461785471668512.715264313161395.126814381668512.70476565
3161393.711462891668512.693282723161392.80890563 1668512.6860649
3161390.943423811668512.67130114 3161390.53003881668512.66802031
 3161388.31547631668512.650303813161388.220004051668512.64964764
3161388.205568391668512.649319563161386.072042471668512.63258731
3161385.744943381668512.629962643161383.951639891668512.61552697
3161383.259712141668512.609949563161381.795804311668512.59846665
 3161380.78399531668512.590264563161379.686556551668512.58173439
3161378.295155141668512.57057956 3161377.55762381668512.56467406
3161375.787286131668512.550566483161375.419832811668512.54761373
3161373.318787141668512.530881483161373.29024389 1668512.5305534
3161373.092737721668512.528912983161371.082899231668512.51316498
3161370.79877906 1668512.51086843161368.925095141668512.49577656
 3161368.29976831668512.490855313161366.759417061668512.47871622
3161365.765652641668512.470514153161364.584224551668512.46132781
3161363.267626141668512.450829153161362.409360141668512.44393939
3161360.765006471668512.430816053161360.233839561668512.42655097
3161358.22170447 1668512.41047493161358.053397721668512.40916257
3161356.959895971668512.400304323161355.776499391668512.39111798
3161355.588179561668512.389477573161353.407737721668512.37208915
3161352.854261131668512.367824063161351.023556141668512.35306031
3161350.076379551668512.345514393161348.658731481668512.33435956
3161347.34016456 1668512.32386093161346.289641721668512.31533073
3161344.552440461668512.301551223161343.945158211668512.29662998
3161341.829020721668512.279897723161341.559336221668512.27760114
3161339.812620551668512.26382165 3161339.28407831668512.25955656
3161339.197792381668512.258900393161337.242087631668512.24348047
3161336.768663391668512.239543483161335.155805721668512.22674823
3161334.342487141668512.220186563161333.071164221668512.21001598
3161331.915654721668512.200829643161330.981601481668512.19328372
3161329.462247551668512.181472733161328.879243461668512.17655148
3161327.025244551668512.161787733161326.873998141668512.16080348
3161325.934695561668512.153257563161324.689291221668512.14341506
3161324.518359811668512.141774643161322.471775961668512.12569857
3161321.943561811668512.121433483161320.252620311668512.10798205
3161319.433396221668512.101420393161318.060039391668512.09059365
3161316.887141471668512.081079233161315.845476881668512.07287714
3161314.355322391668512.061066153161313.620743811668512.05516064
 3161311.85106231668512.041053063161311.461627391668512.03777222
3161309.31694664 1668512.02071193161309.237550471668512.02005573
3161308.679808811668512.015790643161306.967541891668512.00201115
3161306.636833891668511.999386473161304.690971641668511.98396656
3161303.907836721668511.977732973161302.395700631668511.96559389
3161301.096818721668511.955423313161300.081728891668511.94722122
3161298.335997481668511.933113653161297.769397561668511.92884856
3161295.510215711668511.910803973161295.451488811668511.91014782
3161295.155229551668511.907851233161293.141454061668511.89177515
3161292.860614721668511.889478563161290.867836551668511.87373056
3161290.272693381668511.869137393161288.598484141668511.85568598
3161287.620467721668511.847811983161286.289105551668511.83731331
3161284.958071471668511.826814643161283.990553721668511.81894064
3161282.38196114 1668511.80614543161281.728419141668511.80089606
3161279.745155391668511.785148053161279.451848891668511.78285147
3161277.312417481668511.765791153161277.174622481668511.76447882
3161277.145751131668511.764478823161275.181844311668511.74873081
3161274.70973238 1668511.74512193161273.189394221668511.73298281
3161272.24451423 1668511.72543693161271.209739391668511.71723481
3161269.811120141668511.706079973161269.261580561668511.70148681
3161267.387240471668511.686723053161267.279957221668511.68573882
3161266.802924051668511.682129893161265.123793561668511.66867848
3161264.792101311668511.666053823161262.940070881668511.65129006
3161262.192040891668511.645384573161260.805560721668511.63422972
3161259.586403061668511.624387223161258.620197641668511.61684132
3161256.968298051668511.603717983161256.44303663 1668511.5994529
3161254.353473891668511.582720643161254.260298221668511.58206448
3161253.759971141668511.578127473161252.179593731668511.56533223
3161251.904987981668511.563363733161250.144492811668511.54925615
3161249.456830141668511.543678733161248.073302721668511.53285198
3161247.025732641668511.524321813161246.037217561668511.51644781
3161244.588729631668511.504964893161243.974557641668511.50004365
3161242.159600631668511.485607983161241.919115561668511.48363948
 3161240.76065331668511.47445314 3161239.76065531668511.46657914
3161239.601206811668511.465266813161237.371880561668511.44755031
3161236.883364471668511.443613313161234.982121561668511.42852148
3161234.183566721668511.421959823161232.631404471668511.40982072
3161231.445383221668511.400306313161230.227865961668511.39046381
3161228.726884721668511.378652813161227.875508471668511.37176307
3161226.017572551668511.356999313161225.534961971668511.35306232
3161223.33024196 1668511.33567393161223.174074311668511.33436155
3161222.05924714 1668511.32550333161220.88470881 1668511.3159889
 3161220.6248668 1668511.31402043161218.602233051668511.29794431
 3161217.83747081668511.291710723161216.312211391668511.27957164
3161214.988067061668511.269072983161213.990365641668511.26119898
 3161212.12291531668511.246107153161211.663598641668511.24249823
3161209.600282551668511.226094073161209.363406391668511.22412556
3161209.337159721668511.224125563161209.314850051668511.22379747
3161207.178371381668511.206737153161206.910983471668511.20476864
3161206.698713561668511.203128233161205.037955721668511.18967681
3161204.514006641668511.185739823161204.103902471668511.18245898
3161202.872933811668511.172616483161202.082909141668511.16605482
3161201.464143981668511.161133563161200.731205811668511.15555614
3161199.639344471668511.146697893161198.87491031 1668511.1407924
3161198.59702373 1668511.13849583161197.206278471668511.12734097
3161196.43101755 1668511.12110743161196.17708105 1668511.1191389
3161194.762057631668511.107984073161194.196441961668511.10339089
3161193.266325731668511.095844983161192.306681981668511.08829907
3161191.964162981668511.085674393161190.270268721668511.07222298
3161189.868038551668511.068942143161189.724666131668511.06762981
3161187.894289231668511.053194153161187.51600914 1668511.0502414
3161187.475326811668511.049913323161185.30407131 1668511.0325249
3161185.021591561668511.030228323161184.665949231668511.02727556
3161182.59672764 1668511.0108714 3161181.91628281668511.00562206
3161180.190892551668510.991842553161179.202705551668510.98396856
3161177.770621811668510.972485653161176.500283141668510.96231507
3161175.342148971668510.953128733161173.750616711668510.94033347
3161172.93664198 1668510.93409993161171.039992231668510.91867998
3161170.535071971668510.91474298 3161168.34544381668510.89735456
3161168.123987561668510.895714153161166.378256141668510.88160656
3161165.815593231668510.877341483161165.701420221668510.87635723
3161163.674849471668510.860281143161163.117107811668510.85568798
3161161.548869481668510.843220823161160.501955551668510.83469065
3161159.37827013 1668510.82583243161157.900254731668510.81402139
3161157.216529061668510.808772063161155.311677221668510.79335214
3161155.053475631668510.791383643161153.904199721668510.78219731
3161152.902233231668510.774323313161152.713913381668510.77268289
3161150.747381881668510.757262973161150.216214971668510.75299789
3161148.630260141668510.740202653161147.750668721668510.73331289
3161146.551524131668510.723798483161145.277248471668510.71362789
3161144.447525721668510.707066223161142.824497481668510.69394289
3161142.33237247 1668510.69000593161140.324502471668510.67392981
3161140.173912231668510.672945563161139.364530641668510.66638389
3161138.072866561668510.656213313161137.734612641668510.65326056
3161135.938356381668510.639152973161135.101743891668510.63259131
3161133.798596891668510.622092653161132.44230039 1668510.6112659
 3161131.63882431668510.604704233161129.767765061668510.58994047
3161129.483316811668510.587643893161128.149986131668510.57714523
3161127.228400051668510.569599323161127.107665391668510.56861506
3161124.939690721668510.551554723161124.478733641668510.54761773
 3161122.65655881668510.533182053161121.892124641668510.52727656
3161120.35833505 1668510.51480943161119.287471061668510.50627923
 3161118.09160731668510.496764813161116.688394891668510.48560998
3161115.799617141668510.478720233161114.089318721668510.46494073
3161113.524687311668510.460347563161111.471213711668510.44427148
3161111.261896551668510.442302973161109.684471891668510.42983581
3161108.932832971668510.423930323161108.781258461668510.42261797
3161106.627719481668510.405557653161106.022405711668510.40063639
3161104.29242231 1668510.38685693161103.208763051668510.37832673
3161101.958437471668510.368156153161100.32228589 1668510.3553609
3161099.603455311668510.349455393161097.518157631668510.33305122
3161097.255690981668510.33075464 3161096.10739931668510.32156831
3161094.941391141668510.312381983161094.760945311668510.31106964
3161092.658259231668510.294337393161092.16974314 1668510.2904004
3161090.403998641668510.276292823161089.597241711668510.26973115
3161088.160564811668510.258248223161086.99455664 1668510.2490619
3161085.891540471668510.240203653161084.49390547 1668510.2290488
 3161083.70191231668510.222815233161081.958477471668510.20903572
3161081.476194981668510.205098733161079.407301471668510.18869457
3161079.254414631668510.187382223161078.173380051668510.17885207
3161077.10350031 1668510.17032193161076.842674051668510.16802531
3161074.939790731668510.152933483161074.172731891668510.14702798
3161072.807905231668510.135873143161071.495571881668510.12570256
3161070.635665481668510.118812813161068.807585141668510.10404906
3161068.47884564 1668510.10142443161067.039544061668510.08994147
3161066.291842131668510.084035983161066.200306891668510.08337981
3161064.080232381668510.066319483161063.671112481668510.06303865
3161061.788898391668510.048274893161061.086143881668510.04269747
3161059.544480311668510.030230313161058.541201471668510.02235632
3161057.296125221668510.012513823161055.996915221668510.00201514
3161055.043833141668509.994469233161053.479531811668509.98200206
3161052.803680141668509.976424653161050.957227141668509.96198897
3161050.588461471668509.959036233161048.419830641668509.94164781
3161048.336825551668509.940991643161047.67344105 1668509.9357423
3161046.064520391668509.922947063161045.624232561668509.91933814
3161043.774170641668509.904574393161042.641955051668509.89571615
3161041.474962641668509.886201723161039.693470141668509.87209414
3161039.135728461668509.867500983161037.231860891668509.85240914
3161036.783699051668509.848800233161036.726284471668509.84847215
3161034.429701131668509.830099483161034.097680811668509.82747482
 3161032.06028331668509.811398733161031.455625731668509.80647747
3161029.766324641668509.793026063161028.858846141668509.78580822
3161027.451368631668509.774653393161026.272893311668509.76513898
3161025.101963891668509.75595264 3161023.64691431668509.74414164
3161022.782086641668509.73725189 3161021.06030531668509.72347239
3161020.462537471668509.718879223161018.472383981668509.70313123
3161018.143644471668509.700506553161015.84607689 1668509.6821339
3161015.82114255 1668509.68180583161015.60099864 1668509.6801654
3161013.721081141668509.665073563161013.39398205 1668509.6624489
3161011.599366221668509.648341313161010.88447264 1668509.6424358
3161009.529816551668509.631609073161008.40317839 1668509.6227508
3161007.47142172 1668509.61520493161005.96158221 1668509.6033939
3161005.391701471668509.598800733161003.48291264 1668509.5833808
3161003.290327731668509.582068473161002.347088141668509.57452255
3161001.062313811668509.564351983161000.898600221668509.56303965
3160998.699457631668509.545323153160998.260810231668509.54204232
3160996.316916471668509.526294313160995.566917971668509.52038881
3160993.974073381668509.507921653160992.945204051668509.49971956
3160991.610232961668509.48889281 3160990.27296531668509.47839415
3160989.258859721668509.47019206 3160987.66470281668509.45739681
3160986.913720061668509.451491313160985.008540141668509.43639947
3160984.581047551668509.432790563160982.403230381668509.41540214
3160982.247718891668509.414417893160981.075149061668509.40490347
3160979.905531971668509.39571714 3160979.65093931668509.39374864
3160977.55350256 1668509.37701643160976.837624711668509.37111089
3160975.196551891668509.357987553160974.025950551668509.34880123
3160972.85895814 1668509.33961493160971.169985131668509.32616347
3160970.505944481668509.320586063160968.348796561668509.30352573
3160968.151618471668509.301885313160967.142434141668509.29401131
3160965.814352811668509.283512643160965.677542061668509.28220031
 3160963.48758581668509.264811893160963.092573461668509.26153105
3160961.166068141668509.246439233160960.49120072 1668509.2408618
3160958.855377231668509.227738473160957.955116561668509.22084872
3160956.554200721668509.209693893160955.390489131668509.20017947
3160954.248431061668509.191321223160952.842265891668509.17983831
3160951.953488141668509.172948553160950.323898231668509.15982522
 3160949.67855831668509.154903983160947.782892811668509.13981214
3160947.373772891668509.136531313160945.275351881668509.11979906
3160945.097530721668509.118158643160943.609344721668509.10634765
3160942.845566721668509.10044214 3160942.57227331668509.09814556
3160940.516175061668509.081741393160939.465652231668509.07321122
3160938.133633881668509.062712573160936.332784471668509.04827689
3160935.751748891668509.04368372 3160934.12937681668509.03088848
 3160933.3577248 1668509.0246549 3160933.25142581668509.02399872
3160930.891522391668509.004969893160930.445000981668509.00136098
3160928.462721471668508.985612973160927.757998471668508.98003556
3160926.053277481668508.966584153160925.008003971668508.95805398
3160923.640552641668508.947227223160922.296723311668508.93640047
3160921.25013748 1668508.92819843160919.599550221668508.91507506
3160918.856769551668508.909169553160916.920421721668508.89374964
3160916.459792721668508.890140733160914.206188311668508.87209614
3160914.08020431 1668508.87111193160913.063145971668508.86290981
3160911.765576391668508.852739233160911.495235731668508.85044265
3160909.555935141668508.835022733160908.752787141668508.82846107
3160907.292160141668508.816978143160905.990653561668508.80647948
3160905.006075471668508.798605473160903.222614471668508.78449789
3160902.750174481668508.780888973160900.44309247 1668508.7625163
 3160900.4384993 1668508.76251633160900.418486221668508.76218823
3160897.98345172 1668508.74283133160897.756089971668508.74086282
3160895.49854855 1668508.72314633160895.042184641668508.71920931
3160893.02775297 1668508.70346133160892.387006221668508.69821198
3160890.58057939 1668508.68377633160889.717064051668508.67688656
3160888.11601739 1668508.66409133160887.039247891668508.65556115
3160885.66982806 1668508.64473443160884.39653663 1668508.6345638
 3160883.2279038 1668508.6250494 3160881.73381231668508.61323839
3160880.832567391668508.606020553160879.105208641668508.59224106
3160878.384409551668508.586663653160876.454623391668508.57124373
3160875.956264811668508.56730673 3160873.82634781668508.55024639
3160873.527791981668508.547949813160871.205946221668508.52924906
 3160871.0980068 1668508.52859293160869.922484221668508.51907848
3160868.62261805 1668508.50890793160866.877870891668508.49480031
3160866.185615051668508.489550983160864.845394641668508.47872423
3160863.70169614 1668508.46953793160862.850976051668508.46297623
3160861.20366964 1668508.44985293160860.780770231668508.44624397
3160859.058004631668508.432464483160858.73681106 1668508.4301679
 3160858.68267731668508.429511733160856.574085731668508.41277948
3160856.211225551668508.409826733160854.423499471668508.39571914
3160853.711230561668508.39014173 3160852.27717831668508.37865882
 3160851.25749531668508.370456733160849.862484981668508.35930189
3160848.793261391668508.350771733160846.932044641668508.33600798
3160846.338541881668508.33108673 3160844.05869081668508.31304215
3160843.89104022 1668508.31172983160843.072144231668508.30516814
3160841.675493461668508.294013313160841.356924551668508.29138865
3160839.496363971668508.276624893160838.714541391668508.27039132
3160837.293612471668508.259236473160836.073142471668508.24939397
3160835.091189061668508.24151997 3160833.38745231668508.22806856
3160832.899592381668508.224131553160830.752286971668508.20707123
3160830.703730641668508.206743153160830.484242891668508.20477465
3160828.247042641668508.187058153160828.040350141668508.18541773
3160825.772638141668508.167373153160825.368767561668508.16409232
3160823.304467221668508.147688153160822.675531481668508.14276689
3160820.793973551668508.127675063160819.956376811668508.12111339
3160818.342206811668508.107990063160817.297589471668508.09978798
3160815.859600221668508.088305063160814.607306141668508.07846256
3160813.404224561668508.068620063160812.00724572 1668508.0577933
3160810.990843551668508.04959123 3160809.37765781668508.03679597
3160808.59780373 1668508.03056243160806.748726061668508.01579864
3160806.190000131668508.011205483160804.171631471668507.99512939
3160803.801225391668507.992176643160801.567305971668507.97446014
3160801.395062221668507.973147813160799.496115891668507.95805597
3160799.076825381668507.954447063160798.961996231668507.95379089
 3160797.04106831668507.938370973160796.373090641668507.93312164
3160794.964628891668507.921966813160793.80715089 1668507.9124524
3160792.894423051668507.905234563160791.172641721668507.89145505
3160790.829138471668507.888830393160789.409849971668507.87767556
 3160788.63754181668507.871441983160788.541741481668507.87078582
3160786.286824721668507.852741233160785.861628731668507.84913231
3160783.964978981668507.834040483160783.231384641668507.82846306
3160781.675613481668507.815995893160780.653633891668507.80779381
3160779.402652141668507.797951313160778.076867391668507.78712456
3160777.139205221668507.779906723160775.524707141668507.76678339
3160774.889209721668507.761862143160772.989935311668507.74677031
3160772.638558061668507.743817553160770.453851131668507.72642915
 3160770.41120031668507.72610106 3160770.0588388 1668507.7234764
3160768.355758221668507.709696893160767.80195355 1668507.7054318
3160766.313439471668507.693620823160765.066066641668507.68345022
3160764.254716561668507.677216653160762.294418631668507.66146864
 3160762.15334281668507.660484393160761.759970891668507.65720356
3160759.781956461668507.641455563160759.599870221668507.64014323
 3160757.35020281668507.622098643160756.926975311668507.61881781
3160754.923698471668507.602741733160754.307557971668507.59782048
3160752.488663971668507.583384813160751.661237811668507.57682315
3160750.101857721668507.564355983160749.061177391668507.55615389
3160747.710130211668507.545327143160746.495237631668507.53548464
3160745.359741231668507.526626393160743.899770391668507.51481539
3160742.972606881668507.507597573160741.358764981668507.49447423
3160740.632388471668507.488896823160738.803980051668507.47413306
3160738.273141221668507.470196053160736.243289631668507.45379189
 3160735.9289858 1668507.45149533160733.638964131668507.43312265
3160733.52479114 1668507.43213843160732.068757311668507.42065547
3160731.280701131668507.414421893160731.134704051668507.41310956
3160729.215744641668507.398017733160728.617648721668507.39309648
 3160727.11207431668507.380957393160726.12159072 1668507.3730834
3160725.037603391668507.364553233160723.571070891668507.35274222
3160722.916544631668507.347492893160721.022847641668507.33240107
3160720.771207721668507.330432563160719.570094631668507.32091814
3160718.502511471668507.312387973160718.386698051668507.31140372
3160716.072070141668507.293031073160715.691493471668507.29007831
3160713.655080211668507.274002223160713.041564391668507.26908098
3160711.24301155 1668507.25464533160710.361451641668507.24775556
 3160708.8168353 1668507.2352884 3160707.68297931668507.22610205
3160706.383441221668507.21593148 3160705.02156731668507.20510472
3160703.969075981668507.196574553160702.373934811668507.18410739
3160701.598017721668507.177873813160699.733848211668507.16278198
3160699.20038472 1668507.15851693160697.069155381668507.14178464
3160696.794221551668507.139488063160694.490748471668507.12111539
3160694.442192141668507.120787313160694.00616939 1668507.1171784
 3160692.25584481668507.103398893160691.694822311668507.09880573
3160690.005521221668507.08535431 3160688.84246581668507.07616797
3160687.762087391668507.067637823160685.902839141668507.05254598
3160685.497984311668507.049593233160684.148905631668507.03876647
3160683.13545622 1668507.03056443160682.990771471668507.02958015
3160680.62529063 1668507.0105513 3160680.17122331668507.00694239
3160678.12562372 1668506.99086633160677.322147641668506.98430464
 3160675.64170481668506.970853223160674.516050891668506.96199498
3160673.155161221668506.951168223160671.691909551668506.93935722
 3160670.67124231668506.931155153160668.907794391668506.91737564
3160668.212913891668506.911798223160666.111212061668506.89506598
3160665.766396481668506.892113223160663.313317391668506.87275632
3160663.309708481668506.872756323160663.286086471668506.87242822
 3160660.98819081668506.854055553160660.203087391668506.84782198
3160658.63124014 1668506.83535483160657.096138221668506.82321572
3160656.227373561668506.816325983160653.891748311668506.79762523
3160653.75231288 1668506.79631293160653.340240231668506.79303207
3160651.367803221668506.777612153160651.183092311668506.77597173
3160648.894382971668506.75759906 3160648.48624731668506.75464632
3160646.477064971668506.73857023 3160645.85239431668506.73364897
3160644.009550211668506.718885233160643.196559731668506.71232356
3160641.583045891668506.699528313160640.552864221668506.69132623
3160639.15851006 1668506.68017143160637.93738389 1668506.6703289
3160636.766454471668506.661142563160635.322887811668506.64965965
3160634.347496051668506.641785643160632.70445472 1668506.6286623
3160631.925584881668506.622428733160630.077163381668506.60766497
3160629.529264231668506.603399893160627.484648881668506.58699572
3160627.118507891668506.584371063160624.904929641668506.56665456
 3160624.76385381668506.565342233160623.007295641668506.55156273
3160622.414120971668506.546641483160622.197585971668506.54500106
3160620.229085971668506.529253073160619.093589561668506.52039482
3160617.999759721668506.511536553160615.899042141668506.49480431
3160615.714003131668506.493491983160615.262560471668506.48988307
3160613.388220381668506.474791233160613.17234156 1668506.4731508
3160611.028316971668506.456090483160610.554892721668506.45215347
3160608.705815051668506.437389733160607.987968731668506.43181232
3160606.363956231668506.418688983160605.408577561668506.41114306
3160604.061467391668506.40031631 3160602.81704731668506.39047381
3160601.729779141668506.381943643160600.248810981668506.37013264
3160599.428930711668506.363570973160597.728474811668506.35011956
3160597.15432897 1668506.34552643160595.156629551668506.32945031
 3160594.83674831668506.326825653160592.632684471668506.30943723
3160592.573629471668506.30878106 3160592.01785631668506.30451597
3160590.184854721668506.28975223 3160589.57494781668506.28515907
3160587.686500131668506.27006723 3160586.54936331668506.26088089
3160585.176662641668506.250054153160584.571348891668506.24513289
 3160582.61630031668506.229712983160582.537888391668506.22905681
 3160582.18913581668506.22610407 3160580.1399273 1668506.2096999
3160579.978510311668506.20871565 3160577.82497131668506.19132723
3160577.444722731668506.188374473160575.441773971668506.17229839
3160574.861722631668506.167705223160573.108117221668506.15392573
3160572.308906231668506.147364073160570.703266381668506.13456881
 3160569.72262531668506.126694813160568.346971881668506.11586806
3160567.174402061668506.106681733160566.010034311668506.09716731
3160564.620929461668506.086012483160563.656036391668506.07846656
3160562.038585561668506.065671313160561.265293141668506.05943772
3160559.482160231668506.045330143160558.929339811668506.04073697
3160556.951981561668506.024988983160556.60585363 1668506.0223643
3160554.42114672 1668506.00497593160554.270556461668506.00366355
3160552.604877381668505.990540223160552.032371971668505.98594706
3160551.788606051668505.983978553160550.156063391668505.97085522
3160549.916562561668505.968886733160548.907378231668505.96101272
3160548.701669981668505.959372313160547.545832381668505.95018597
3160547.208234641668505.947561313160546.78631946 1668505.9439524
 3160545.15771381668505.931157143160544.728252721668505.92754823
3160544.687570391668505.927220153160542.201682971668505.90753515
3160541.915922391668505.905238553160539.710218131668505.88752206
3160539.187581391668505.883585073160537.217112881668505.86783706
3160536.459896551668505.861603483160534.737459051668505.84815206
3160533.739101471668505.839949983160532.263054551668505.82813898
3160531.040944141668505.818624563160529.805710391668505.80878206
3160528.336881311668505.79697105 3160527.67743381668505.79172173
3160527.335242881668505.789097063160525.690889221668505.77597372
3160525.210575221668505.772036733160524.928095471668505.76974015
3160523.008807971668505.754648313160522.686302051668505.75202364
3160522.479281471668505.750383233160520.307041721668505.73299481
3160520.130532891668505.731682483160520.012094811668505.73069823
3160517.671220231668505.711997483160517.63677147 1668505.7116694
3160517.61150905 1668505.71166943160516.959607471668505.70642006
3160515.465187891668505.694280983160514.87168513 1668505.6896878
3160513.441569891668505.678204893160512.109879641668505.66770622
 3160511.42352931668505.662128813160509.851025891668505.64966165
3160509.321499391668505.645396563160507.057724391668505.62735197
3160506.782790561668505.625383483160506.541977391668505.62341498
3160504.352349221668505.606026563160503.868426311668505.60208955
3160501.898942051668505.586341563160501.202421141668505.58076414
3160499.446519141668505.566656563160498.532478971668505.55943872
3160496.980316711668505.546971563160495.893048551668505.53844139
3160494.532158881668505.527614643160493.223434481668505.51711598
3160492.093843551668505.508257733160490.602704811668505.49644673
3160489.680790631668505.488900813160487.97771005 1668505.4754494
3160487.254942481668505.469543893160485.381914721668505.45478015
3160484.860262221668505.45051506 3160482.74248431668505.43378282
3160482.420962631668505.431158143160480.126019721668505.41278547
3160480.018080311668505.411801233160479.144722481668505.40491147
3160477.832061051668505.394412823160477.501681131668505.39178814
3160477.271366641668505.39014773 3160475.90391531668505.37932098
3160475.009560141668505.372103143160474.36946955 1668505.3668538
3160473.931150231668505.363572973160472.518423391668505.35209006
3160471.735288471668505.345856473160471.502021221668505.34421606
3160470.057798391668505.332733143160469.379650131668505.32715572
3160468.737262961668505.321906393160467.596189141668505.31304814
 3160467.02007481668505.308454983160465.932806641668505.29959673
3160465.139173061668505.293363143160464.658530971668505.28942615
3160463.157221631668505.277615143160462.654597971668505.27367814
 3160462.3153598 1668505.27072543160460.445612891668505.25596164
3160460.197253811668505.253993143160460.006965471668505.25235273
3160457.718256131668505.234308143160457.702836221668505.23398006
 3160457.68938481668505.233980063160457.536826061668505.23266773
3160455.587354881668505.217247813160455.087683981668505.21331081
3160454.231714551668505.206421063160453.380010221668505.19953132
3160452.36131147 1668505.19165733160451.733031881668505.18640798
3160451.15527713 1668505.18181483160449.615253971668505.16967572
3160448.944323551668505.164426393160446.890193811668505.14802222
3160446.796361971668505.147366063160446.721558971668505.14670989
3160445.97713789 1668505.1408044 3160444.32326981668505.12735298
 3160444.17760081668505.126368733160441.855426971668505.10766798
3160441.478459221668505.104715233160439.452872721668505.08863914
3160438.855104891668505.08404598 3160436.98863881668505.06895414
3160436.154979051668505.062392473160434.522436381668505.04926914