Geom Title=Existing GIS Data - Reservoir as SA
Program Version=4.00
Viewing Rectangle= 1940485.68 , 2096905 , 370090.26 , 272558.21 

River Reach=Bald Eagle Cr.  ,Lock Haven      
Reach XY= 249 
2007214.42380349321393.9918854572007582.52247997321713.011258646
2007932.61474859322013.090951902  2008252.699472322193.138343751
2008492.76407481322223.1458889712008702.81901188322323.173160232
2008812.84667769 322473.213006862008962.88652432322673.265428855
2009142.93391617 322813.302760412009362.99348883322903.325396072
2009623.06100127322963.3426070382009883.13063423323103.377818068
2010083.18305623323333.439905809  2010253.227933323513.487297658
2010553.30550574323763.5522950212010753.36004826324093.639533498
2010903.39777436324393.7192267542010993.42253055324863.843796785
2011123.45734703325123.9113092222011303.50473888325363.973791512
2011553.56973624325614.0409094012011933.66955008325944.128147878
2012313.77148445326264.2128712812012563.83648182326434.257748056
2012883.92120522326534.2828987912013194.00341355326644.312685125
2013354.04577525326734.3353207872013504.08562188326904.380197563
2013674.12837813 327024.412498972013884.18543572327104.434740083
2014074.23534265 327024.412498972014224.27518927326914.382712636
2014404.32258112 326714.330290642014494.34521679326644.312685125
2014694.39763878326604.302624831 2014934.4622416326604.302624831
2015204.53226911326524.2803837182015554.62453773326414.252717909
2015834.69920084326244.2078411342015994.74156254326044.153298613
2016124.77637902325964.1331780252016434.85646683325854.103391691
2016784.94873545325724.0706957352016954.99361223325784.085786176
2017165.05066982 325894.115572512017435.12069733326184.190630168
2017615.16808918326444.2602631292017855.23269199 326714.33029064
2018115.30020443326964.3974085292018385.37235247327144.444800377
2018625.43483476327294.4846470052018945.51955816327454.527008707
 2019215.5917062327554.5521594422019515.66927893327814.621792404
2019815.74897218328084.6918199152020145.83621066328454.789118686
2020395.90120802328854.8960832022020625.96329576329204.988351826
2020806.01068761 329485.060894412020996.06059454329805.145617814
2021266.13062205330195.247946732 2021566.2103153330465.320094767
2021826.27994826330845.4199086122022026.33237026331155.502116941
 2022246.3898224 331545.604445862022506.45945537332045.736561111
2022736.51942258332365.8212845152023026.59660076332585.878736658
2023406.69641461332915.9659751342023696.77147227333276.060758832
2023956.84110523333536.1303917942024266.92331356333816.202934378
2024366.94846429334036.2625070462024446.97070541334196.304868747
 2024687.0331877 334346.342594852025377.21520987334666.427318254
2025627.28232776334736.4470442932025977.37459638 334756.45207444
2026227.43959375334646.4222881072026327.46686501334466.374896258
2026387.48195545334256.3199591882026447.49704589 334106.28011256
2026657.55410348334056.2675371932026907.61910085  334006.2528413
2027147.68158314333976.2452960792027387.74618595333946.237750859
2027707.83090936334026.2599919722028047.92066291334186.302353674
2028347.99823564334286.3275044092028598.06535353334366.349745522
2028818.12280567334516.3874716262029018.17522766334696.434863474
2029348.26246614334886.4868909212029688.35221969334926.496951216
2029878.40212661335006.5170718042030098.46169928335226.576644472
2030278.50909113 335406.62403632 2030488.5640282 335646.68651861
2030658.60890497335896.7515159742030868.66384204336086.803543421
2031128.73135448336186.8286941572031458.81859296336156.821148936
2031738.89325607336156.8211489362032038.97294932336276.853450343
2032339.05052205336516.9159326332032639.13021531 336847.00317111
2032939.20990857337117.0731986212033219.28457168337337.132771288
2033499.35711426337607.2027987992033839.44686781337817.259856393
2034219.54668165338027.3147934632034529.62888998338197.359670238
2034829.70858324338427.4196374542035089.77609568338677.486755343
2035379.85327386   338967.5618132035479.88054512 339177.61675007
2035739.94805756339497.701473473 2035960.0055097339677.748865322
2036270.08771803339787.7786516552036560.16489621339937.818498284
2036850.24207439340127.8684052062036990.27728542340367.930887496
2037190.33182795340738.0281862672037270.35194853341068.115424744
2037290.35697868341438.2127235152037290.35697868342068.379655247
 2037160.3221622342458.4819841662036900.25464976 342908.60152405
2036600.17495651343188.6761871592036380.11750436343318.708883115
2036240.08017281343518.7634256352036270.08771803 343798.83596822
2036460.13762495344038.900571034 2036800.2273785 344208.94544781
2037050.29449639344429.0028999532037110.30958683344879.120319312
2037070.29952654345209.2075577892036880.24961962345569.302341486
2036870.24710454345839.3744895222037040.29198132346169.461727998
2037340.36955405346559.5640569162037650.45176238346829.636204952
2038110.57381734347169.7259585022038450.66357089347329.768320204
2038810.75835458347329.7683202042039130.84307799347179.728473576
2039380.90807535347139.7162927572039630.97519324347229.741048943
2039781.01503987347589.835832641 2039921.0502509348089.967947893
2039961.06243172348310.0254000362039931.05276597348620.107608365
2039851.03264538348810.1575152882039680.98776861349030.214967431
2039590.96301242349210.2623592792039540.95043705349370.304720981
2039640.97770831349480.3345073152039831.02761523349530.347082682
 2040041.0825523349480.3345073152040271.14251952349480.334507315
 2040441.1873963349450.3269620942040701.25702926349240.272025025
2040901.30945125 349070.22714825 2041081.3568431348940.192331769
2041271.40675002348770.147454993 2041441.4516268348590.100063145
2041661.50907894348500.0753069582041971.59128727348430.057701443
2042231.66092023348440.0602165172042521.73597789348470.067761737
2042771.80309578348480.0702768112043081.88530411348430.057701443
2043231.92515074348360.0400959282043371.96036177348250.010309594
 2043522.0002084348069.9629177462043772.06732628348009.947827304
2044062.14238394348049.9578875992044372.22459227347909.920556044
2044602.28455949347809.893284784 2044882.3592226347669.858073754
2045182.43891585347619.8433778622045592.54627492347669.858073754
2045832.61087773347599.8383477142046062.67084495347369.778380498
2046302.73332724347039.6911420212046572.80547527346789.624024133
2046822.87047264346529.5565116962046982.91283434346239.479333513
2047232.97995223346149.4566978512047583.07222085346179.464243072
2047883.14979358 346259.484363662048223.23954713  346329.5040897
2048623.34651165346469.5414212542049023.45135564 346639.58629803
 2049323.5310489346809.6311748052049763.64595318347039.691142021
2050113.73822181347169.7259585022050503.84267125347249.746079091
2050793.91772891347259.7485941642051154.01251261347339.770835277
2051344.06241953347409.7884407922051654.14462786347509.815712052
2052064.25410745347739.8756792692052454.35643637347999.943191706
2052914.47849132348380.0451260752053314.58333531348670.120183733
2053644.67057379348880.1772413272053994.76284242349040.217482504
2054224.82280963 349100.234693472054484.89244259349150.247268838
2054774.96750025349180.2548140592055025.03461814349200.259844206
2055255.09458536349300.2871154662055495.15706765349530.347082682
2055625.19188413349680.3869293112055875.25900202350000.471652714
2055965.28163768 350230.531619932056095.31645416350390.573981632
2056425.40369264350580.623888554   2056675.46869350680.651159814
 2056995.5534134350740.666250256 2057355.6481971350730.663735182
2057725.74549587350720.6612201092058165.86252068350680.651159814
2058545.96233453 350540.613828262058806.03196749350370.568951485
2059016.08690456350250.536650077 2059236.1443567350210.526589783
2059636.24920069350150.5114993422060066.36371043350130.506469195
2060526.48576539 350230.531619932061106.63800123350390.573981632
2061396.71517941350520.6087981132061626.77514663350690.653674888
2062066.89217144350990.7333681442062306.95465373351260.803395655
2062707.05949772351600.8931492052063017.14170605351880.967812314
2063427.24906511352281.0726563062063707.32372822352511.134744047
2064187.45081333352761.199741411 2064557.5481121 352971.25467848
2064977.65798624353181.3096155492065517.80016178353541.406519771
2065827.88237011353841.4840925032066127.96206337354081.548695318
 2066398.0342114354231.5885419462066868.15666091354241.591057019
2067116.27289606354301.739740517
Rch Text X Y=1993148.2289745,305718.8274359
Reverse River Text= 0 
Reach Upstream Storage Area=Sayers Res      

Type RM Length L Ch R = 1 ,82303   ,404.734,389.139,387.986
XS GIS Cut Line=5
2002396.93833247323284.7017657942003288.30513684322845.479602412
2004812.66977343322419.1735550612005600.68856484321721.582419538
 2007951.8267025319512.547004502
Node Last Edited Time=Nov/20/2006 08:51:27
#Sta/Elev= 400 
       0  699.43   19.32  695.31    28.4  695.44    29.2  694.99   39.66  690.68
   47.63  687.18   47.93   687.2   48.27  687.03   58.02  684.76   60.76  685.19
   74.53  687.32   80.34  687.39   86.73  687.47  101.79  686.92  104.55  686.88
   107.9  686.07  114.48  687.61  127.05  688.59  138.47  688.15  150.67  687.57
  170.55  686.47  183.94  685.42  200.26  683.79  217.83     682  231.55  680.24
  235.98  679.68  267.71  676.63  284.94  675.14  295.72  674.24  320.77     672
  321.65  671.92  326.04  671.52  345.02  670.38  360.26  669.35  369.22  668.48
  387.35  666.39   396.4  665.15  411.53  663.96  434.21  662.48  440.06  661.98
  460.27  660.79  466.77  660.29  477.21  659.66  486.76  659.21  501.72  658.45
  515.22  657.83     555  656.29  555.75  656.27  578.01  655.22  589.64  654.67
  590.11  654.64  637.65  651.63  651.68  651.18  682.11  650.53  715.15  649.59
   726.8  649.43  767.75  649.64   791.1  650.27  838.03  652.09  848.75  652.42
  891.57  653.46  910.98  653.95  915.84  654.02   932.1  654.16   969.7  654.45
  993.71   654.7 1005.75  654.85 1012.93  654.95 1066.72  652.36 1078.44   651.8
 1103.31  651.41 1122.66  650.96 1151.46  650.87 1168.75  650.65 1207.31  649.44
 1229.44  648.67 1248.01  647.48 1278.22  645.46 1293.72  644.43 1318.62  642.75
 1335.59  641.49 1345.42   640.9 1403.41  637.87 1403.65  637.86 1405.46  637.75
 1439.89  635.68 1442.64  635.59  1450.1  635.33 1501.52  633.43 1519.23  632.92
 1559.89  631.93  1572.6  631.63 1587.93   631.4 1639.28  630.44 1644.94  630.36
 1649.24  630.34 1678.81  630.58 1690.24  630.35 1693.98  630.69 1707.27  630.84
 1708.34  630.91 1725.78  631.42 1726.42  631.37 1728.35   631.4  1730.7  631.71
 1737.61  632.11 1740.24  631.68 1762.58  632.13 1766.36  631.89 1783.75  630.52
 1784.38  630.52 1784.62  630.52 1784.84  630.52 1807.57  630.52 1811.64  630.52
 1816.44  630.52 1858.11  630.52 1871.75  630.52  1904.6  630.52 2013.84  630.52
 2025.04  630.52 2029.74  630.52 2034.57  630.52 2039.98  630.52 2046.28  630.52
 2064.25  630.52  2092.9  630.52  2132.2  630.52 2141.55  630.63 2207.32   631.3
 2223.02  631.52 2265.71  632.25 2276.09  632.63 2322.75  634.11  2323.5  634.12
 2357.27  634.84 2405.57  635.87 2407.29  635.91 2447.11  637.06 2450.52  637.17
 2475.02  637.87 2486.13  638.19 2487.55  638.22 2519.46  640.03 2528.13  640.46
 2546.05  641.51 2555.73  641.91 2562.36  642.27 2576.56  642.92 2580.86  643.07
 2596.11  643.87 2614.43  644.62 2634.63  645.36 2648.48  645.93 2666.43  646.61
 2685.44  647.63 2722.21   649.3 2722.49  649.31    2723  649.32 2762.41   650.1
 2777.68  651.07  2798.3  652.64 2821.43  654.57 2855.01  656.63 2894.63   658.3
 2907.04   658.9 2966.03  661.17 2987.88  661.98    2996  662.37 3084.28  666.74
 3145.63  670.43 3177.35  672.27  3231.4   675.7 3251.93  676.95 3257.81  677.52
 3271.75  679.34 3293.53  680.04 3317.19  680.82 3340.52  684.24 3341.43   684.4
 3342.88   684.5 3366.49  685.99 3379.58  686.99 3383.74  687.22 3409.21  688.63
 3438.11  688.76 3449.16   688.8 3453.78  688.65 3464.26  688.37 3477.28  687.47
 3481.22  687.53 3495.28  687.92  3518.5  687.27 3524.24   687.1 3525.45  687.07
 3551.67  685.42    3554  685.32 3557.31  684.97 3578.65  682.02 3580.97  682.07
  3589.3  682.22 3591.62  682.18 3599.96  682.02 3607.22  680.81 3610.23   680.1
 3628.99  677.27  3646.2  674.67 3656.19  673.46 3684.84  667.13 3693.21  665.16
 3701.48  665.01 3704.64  664.96 3717.96  664.68 3724.72  664.59 3739.99  662.54
 3760.64  659.14 3776.62  656.38 3794.31  653.49 3830.03  646.88 3834.64   646.2
 3851.89   643.5 3861.31  642.07  3863.5  641.82  3890.7  638.77 3915.19  636.38
 3926.25  635.24 3963.05   632.3 3977.92  631.41 3982.96  629.82 3987.15  628.84
 3999.36  627.55 4027.52  624.79 4072.41  621.68 4078.29   621.3 4106.37  617.97
 4109.74  617.62 4129.07   615.5 4134.32  615.16 4152.34  612.86 4158.95   612.7
 4165.98  612.59 4172.78  612.52 4185.38  611.02 4193.38  610.99 4328.75  601.07
 4342.74  601.14 4357.19  600.88 4371.55     600 4384.88  599.78 4398.87  599.69
 4412.58  599.58 4421.65  599.28 4436.52  599.21 4451.51  599.15  4459.7   599.1
  4473.9  598.96 4481.89  598.96 4529.85  598.21 4536.26  597.96 4551.06  597.93
 4567.03  597.86 4592.63  596.57 4606.73  596.57 4621.97  596.51 4637.26  596.48
 4653.82  596.45 4682.18  596.07 4696.66  596.05  4702.5  595.96 4718.68  595.91
 4733.53  595.84 4739.65  595.72 4754.08  596.09 4769.34  595.98 4784.82  595.99
 4798.91   595.9 4805.02   595.8  4816.5  595.63 4844.99  595.84 4850.97  595.76
 4865.75  595.75 4880.04  596.07 4894.44  595.45 4906.53  595.19 4920.65  595.09
 4926.77  594.31 4932.46  592.53 4947.57   593.8 4976.81   595.6 4983.03   595.6
 4997.22  595.92 5003.84  595.82 5010.01  595.96 5024.08  595.88 5038.23  595.75
 5052.55  595.77  5058.5  595.78 5073.32  595.56 5085.67  595.45  5091.4  595.39
 5105.83   595.4 5161.47   595.6 5167.85  595.59 5182.32   595.6 5197.28  595.59
  5203.5  595.54 5209.66  595.49 5225.15  595.45 5243.78  595.51 5249.42  595.59
 5255.65  595.57 5269.18  595.55 5275.59  595.61 5281.92  595.68  5296.8  595.54
 5303.08  595.53 5315.61   595.5 5329.07  595.37 5342.58  595.13  5356.8  594.76
 5369.79  594.67 5383.46  595.65  5397.6  596.81 5403.93  596.74 5419.41  595.06
 5426.36  594.83 5439.76  595.35 5453.26  593.66 5460.15  593.46 5467.13  593.27
 5481.34  591.64 5496.34  585.92 5564.83  585.81 5700.02  585.75 5737.02  594.09
 5750.52  597.07 5764.14  597.83  5771.2   597.9 5777.83   597.9 5791.15  598.06
 5797.22  598.09 5811.75     598 5818.74  597.96    5825  598.06  5831.7  598.12
 5844.76  598.19 5851.15  598.29 5870.08  598.27 5877.44  598.17  5883.6  598.14
 5898.46  598.25 5905.41  598.22 6002.79   599.7 6009.09  599.71 6015.22  599.71
 6021.27  599.65 6035.51   599.5 6041.84  599.47 6056.38  599.37 6062.59  599.34
    6069  599.34 6192.75  610.95 6201.62  610.99 6257.65  616.91 6261.74  617.09
 6279.87  619.42 6294.17   621.3  6315.1  624.19  6321.3  625.01 6340.26  628.01
 6377.18  633.66 6389.12   635.7 6406.12  637.72 6407.71  637.59  6431.9  641.09
 6436.31  641.69 6466.18  646.16 6467.37  646.38 6493.15  651.35 6516.16   655.6
 6524.39   657.4  6550.8  662.35 6583.94  668.87 6592.71  670.52 6621.45  676.98
 6627.96  678.27 6655.63  681.61 6661.67  681.38 6667.37  681.12 6684.85  682.25
 6716.75   686.6  6726.5  688.36 6732.01  690.42 6760.88  711.45 6767.37  714.47
 6789.44  718.64 6812.93  723.47 6815.26  724.07 6817.46  724.65 6855.09  734.94
#Mann= 3 , 0 , 0 
       0     .06       0 3599.96     .04       0 6655.63     .08       0
Bank Sta=3599.96,6655.63
XS Rating Curve= 0 ,0
XS HTab Starting El and Incr=591.8,1, 100 
Exp/Cntr=0.3,0.1

Type RM Length L Ch R = 1 ,81914   ,1002.056,998.163,970.456
XS GIS Cut Line=12
2002474.44987232323336.3768325372002939.51062934323103.846454029
2003288.30513684322974.661967959  2003675.854354322974.661967959
2004037.56921858322948.8254948492004399.28196263322897.152548631
2004916.01566587322729.2133528962005342.32171322322535.437684052
2005716.95269383322212.4796496622006853.76811326321075.666350758
2007473.84770893320494.3393442262008223.11179067319822.586802337
Node Last Edited Time=Nov/20/2006 08:53:37
#Sta/Elev= 397 
       0  698.61    6.72  696.59   24.25  690.38   34.61  688.54   43.43  685.16
   47.38   685.9   50.57  685.94   81.79  685.78   85.14  685.73   91.63  684.83
   95.01  684.44  107.76  687.87  116.92  691.08  136.83  689.69  148.83  688.77
  155.65  688.36  176.07  686.64  206.41  683.84  215.35  682.76  239.82  680.84
  250.38   679.9   252.7  679.76  267.82  678.39  299.58   675.3  306.13  674.44
  327.02  672.05  340.54  670.78  355.73  669.37  369.41  667.98  383.83  666.46
   396.2  665.49  405.58  664.28  415.53  663.39  432.44  662.07  446.09  660.96
  456.84  660.29  475.69  659.29  487.41  658.75  503.08  657.91  508.82  657.42
  517.85   657.3  519.95  657.22   530.6  656.92  553.24  656.36  555.59  656.27
  567.65  655.98  583.67  655.57  586.45  655.51  589.32  655.16  607.67  654.56
  613.65  654.56  631.65  653.94  640.78  653.63  665.55  652.83  689.16  652.43
  690.66  652.39     697  652.36  707.55  652.54  710.42  652.55  715.71  652.64
  729.26  652.78  735.41   652.8  741.65  652.94  758.39  653.24  761.12  653.27
  781.74  653.79  796.59  654.19  809.04   654.5  834.84     655  844.62   655.2
   865.7  655.56  885.83  655.78   891.9  655.89   903.9  656.18  919.11  656.22
  935.81  656.43  949.58  656.65  966.75  656.79  974.99  656.89   984.7  657.32
  998.74  657.34 1015.85  657.21 1021.96  657.17 1029.82  657.17 1042.39  656.88
 1068.31  656.69 1091.65  655.75 1115.52  655.18 1136.34  654.43  1158.1  653.46
 1172.23  653.09 1187.66  652.68 1203.28  652.45 1215.83   652.2  1232.3  652.15
 1236.67  652.05 1242.95  651.68 1249.19   651.4  1269.1  650.66 1279.45   650.3
 1282.94  650.17  1309.6  647.97 1330.96  647.41 1338.96  646.97 1349.99  646.58
 1375.72  645.48 1392.39  644.87 1399.13  644.61 1439.32  642.83 1445.23  642.52
 1453.57  642.12  1467.5  641.58 1523.35  638.95 1541.76   638.4 1584.18  637.32
 1605.76  636.99 1620.74  636.66 1642.09   636.5 1676.97  636.13 1738.09   636.1
 1762.75  636.07 1789.46  636.01 1841.53  636.03 1903.09  635.94 1917.61  635.92
 1981.44  635.93 1991.77  635.96 2007.47  636.11 2027.25  636.16    2064  636.31
 2076.42   636.4 2120.97  636.67 2151.55  636.72 2174.62  636.62 2193.76  636.73
 2201.73  636.66    2238  637.14 2268.54  637.49 2295.43  638.29  2335.8  639.23
 2367.44   640.1 2387.19  640.13 2432.42  639.79 2446.43   639.6 2468.95  639.51
 2482.43  639.46 2484.22  639.47 2490.59  639.45  2509.5  639.44 2524.14  639.36
 2542.64  639.56 2544.99  639.47 2549.23  639.16 2550.81  639.06 2567.62  637.72
 2574.61     637  2589.6  638.17 2599.53  639.48 2606.26  639.75 2644.39  640.37
 2651.54  640.49  2656.3  640.49 2695.99  640.22  2706.9  640.23 2731.55   640.3
 2755.22  640.33  2783.8  641.13 2814.81  642.35 2854.38  644.31  2856.9  644.37
 2879.43  645.14  2908.9  646.17 2917.54  646.48 2961.27  647.86 2969.95  648.04
 2980.14  648.53 2987.61  648.74 3010.99  649.13 3019.09  649.29 3063.36  650.62
  3075.9  651.05 3125.95  653.06 3147.82  653.99 3191.25  655.92 3212.42  656.51
 3254.54  658.03 3272.25  658.97 3293.72     660 3328.43  662.45 3347.95  663.72
 3363.53  665.33 3401.26  669.41  3449.8  675.85 3456.59  676.92 3460.93  677.07
 3486.68  678.36  3489.1  678.82 3513.71  683.44 3517.51  684.17 3540.74  686.45
 3560.05  688.45 3566.06  688.39 3592.64  688.24 3599.73  687.05 3617.01   684.7
  3654.3  678.72 3680.35  678.39 3692.71  678.55 3695.08   678.6 3706.82  678.42
 3725.63  678.74  3729.2  678.68 3742.39  676.38 3758.57  672.72 3775.15  670.85
 3783.53  669.92 3796.98  668.65 3813.87  666.99  3818.9  666.82 3824.41  666.61
 3836.25  664.99 3873.94  659.92  3893.6  657.16 3924.96  653.06 3940.81  651.12
 3985.08  646.28 3991.55  645.71 3996.54  645.23 4038.38  641.81 4039.61  641.67
 4070.53  638.98 4072.12  638.83 4075.33  638.61 4113.38  636.27 4152.32  631.86
 4161.78  630.69 4165.19  630.03 4175.27  628.38 4181.81  627.98 4196.48  627.34
 4221.37   626.4 4232.89  626.06 4257.58  625.72 4262.93  625.62 4292.39  625.19
 4299.38  624.92 4315.32  624.01 4334.68  623.23 4358.72  621.84 4364.91  621.67
 4380.53  621.54 4390.63  621.64 4412.17  621.84 4422.68  621.79 4450.86  621.95
 4475.11  621.79 4482.18  621.79 4501.97  621.74 4520.98  621.53 4530.97   621.3
 4548.66  620.84  4551.7  620.79 4588.35   619.8 4596.41   619.7 4620.75  619.05
 4631.75  618.94 4642.93  618.55 4670.68  618.12 4684.29  617.52 4696.72  617.01
 4710.43  616.29 4728.52  615.61 4738.06  615.41 4760.43  615.09 4766.48  615.03
 4781.41  615.05 4794.51  614.74 4797.89  614.67 4816.39  614.57 4822.39  614.43
 4837.55  613.85 4846.96  614.04 4873.68  613.62 4883.78  613.66 4893.72  613.57
  4902.4  613.28  4912.6  612.59 4952.46  590.62 5013.64  584.98 5061.33  585.02
 5110.69  584.91 5170.26  584.91  5209.4  584.96  5278.5  585.34 5355.04  585.69
 5452.85  586.25 5539.31  586.67 5607.34  591.495634.525603.9174 5647.98  604.59
 5654.65  604.75 5660.66  604.85 5673.01  604.83 5679.61  604.92 5692.53  605.03
 5699.38  605.12    5712  605.18 5724.34  605.36 5736.58  605.56 5749.18   605.8
 5755.51  605.85 5768.09  606.05 5774.65  606.08 5787.47  606.12 5793.64  606.15
 5805.47  606.44 5818.68  606.72 5825.57  606.99 5832.04  607.14 5844.27  607.45
 5868.64  607.96 5875.63  608.26 5887.68  608.24 5894.33  608.29 5905.45  608.29
 5918.56  608.14 5925.54  608.05  5932.4     608 5944.12  608.15 5950.68  608.08
 5963.36  608.16 5975.59  608.27 5982.11  608.48 5994.63  608.51 6001.24  608.64
 6013.43  608.51 6019.74  608.54 6031.95  608.58 6038.42  608.56 6052.57  608.43
 6059.28  608.45 6065.93   608.5 6090.45  608.56 6097.57  608.72 6109.68  608.81
 6121.21  608.88 6128.61  608.88 6139.95  608.87 6151.86  608.85 6159.14   608.8
 6166.85  608.91 6178.86  608.91 6191.09  608.97 6198.91  609.08 6210.34  609.06
  6221.3  609.13 6233.39  609.15 6245.98  609.06 6256.72  609.39 6275.44  609.56
 6371.89   617.7 6379.84  618.36 6399.07   621.3 6420.16  624.96    6428  626.13
 6436.89  627.22 6456.48  629.87 6491.53  635.59 6501.74  637.18 6514.44  639.47
 6548.01   644.5 6573.85  647.91 6592.31   650.4 6638.57  656.36 6651.37  658.07
  6676.3   661.8 6715.55  666.49 6723.78  667.64 6727.56  668.19 6758.84  671.53
 6765.59  672.67  6795.3  679.75 6810.42  683.63  6821.6  683.27 6834.86  682.81
 6851.48  681.86 6855.35  681.85 6864.68  680.09 6866.63  680.24 6889.66  686.57
 6908.58  697.68 6919.69  702.23 6939.42  708.02 6961.41  715.22 6965.27  716.46
 6968.72  717.73 6977.68  719.97
#Mann= 3 , 0 , 0 
       0     .06       0  3729.2     .04       0 6810.42     .08       0
Bank Sta=3729.2,6810.42
XS Rating Curve= 0 ,0
XS HTab Starting El and Incr=591.0104,1, 100 
Exp/Cntr=0.3,0.1

Type RM Length L Ch R = 5 ,81454   ,,,
BEGIN DESCRIPTION:
Foster Joseph Sayers Dam and Reservoir
END DESCRIPTION:
Node Name=Joseph Sayers Da
Node Last Edited Time=Nov/14/2006 09:28:17
IW Pilot Flow=0
#Inline Weir SE= 6 
       0     683    1700     683    1700     657    2300     657    2300     683
    6980     683
IW Dist,WD,Coef,Skew,MaxSub,Min_El,Is_Ogee,SpillHt,DesHd
450,25,3.82,0,0.95,,-1 ,12,20,3.5,3.5,
IW Gate Name Wd,H,Inv,GCoef,Exp_T,Exp_O,Exp_H,Type,WCoef,Is_Ogee,SpillHt,DesHd,#Openings
Gate #1     ,7,15,590,0.65,0,1,0.5, 0 ,3, 0 ,,, 2 ,0,0.8, 0 ,0.65,,0,0,0, 0 
    5070    5090

Type RM Length L Ch R = 1 ,80916   ,232.907,196.078,208.611
XS GIS Cut Line=14
 2002190.2465476323543.0686174112002758.65319705323452.640961529
2003133.28417766323349.2950690922003469.16256913323297.620002349
2003701.69294764323336.3768325372004037.56921858323413.886251865
2004515.54821215 323400.968015312005148.54604438323271.783529239
2005807.38247024323090.9282174752006466.21677557322703.376879787
2007241.31733042322083.2972841162007516.30485474 321835.21497736
2007735.34657555321581.5874984772008847.84593809320434.502377861
Node Last Edited Time=Nov/22/2006 11:34:23
#Sta/Elev= 450 
       0  706.37    2.98  706.55   22.37   707.2   39.95  707.71   54.26  707.86
   76.91  707.85   86.15  707.84  113.88  707.59  118.04  707.37  144.24  705.62
  150.84  705.28  181.82  704.63   187.8   704.4  196.04  704.07  224.77  703.18
   245.6  700.47  261.73  699.03  283.96  698.57  298.69  697.77  309.38  696.55
  335.66  694.15  371.87   693.4  372.62  693.39  373.16  693.37  375.75  692.96
  405.47  686.79  415.22  686.45  428.89  686.32  448.29  685.53  459.58  683.16
  476.27  678.64  477.05  678.68  491.23  680.44  497.13  680.72  511.48  680.72
  523.57  680.39   532.4  679.37  534.74  679.21  534.99   679.2  546.17   677.4
  546.64  677.34  561.14  681.91  567.75   683.8  575.55  683.44  595.49  682.56
  601.94  682.32  607.25  682.12  628.15  681.25  637.51  680.89  642.72  680.58
   662.3  679.43  699.27  677.37  707.97  676.82  712.48  676.56  721.13  676.15
  760.95  674.12  788.56  672.88  790.74  672.78  797.63  672.55  820.74  671.16
  825.27  670.69  844.72  669.28  852.03  668.55   869.5  667.35  883.11  666.36
  895.55  665.31  909.69  664.22  927.87  662.11  937.44  661.19  964.18  658.57
  971.14  657.96  979.42  657.21  986.82  656.78  997.12  655.94 1020.67  653.73
 1034.14  653.08 1065.33  652.24 1094.97  651.42 1120.92  650.81 1157.38  650.69
 1201.67   649.8 1230.62  649.61 1266.77   649.6 1276.45  649.61 1303.01  649.13
 1304.01  649.13 1329.79  649.09 1352.54  648.76 1377.64  648.99 1396.66  649.12
 1420.07   649.3 1429.92  653.64 1434.77  649.35 1464.38  649.66 1503.74  650.06
 1517.39  650.29 1539.75  650.95 1551.71  651.26 1560.41  651.47  1566.2  651.64
 1582.91  652.14 1600.03  653.05 1601.22  653.13 1625.15  655.02 1630.65   655.2
 1634.95  655.45 1652.14  656.32  1661.6  656.56 1669.61  656.89 1684.47  657.36
 1703.92  657.67    1714   657.7 1738.76  658.12 1748.98  657.89  1772.4   657.7
 1788.95  657.54    1797  657.63 1802.82  657.37  1819.6  657.62 1837.49  657.77
 1843.87  657.79  1852.2   657.8 1876.77  657.83 1884.45  658.02 1891.68  658.64
 1913.93  659.66 1931.46  660.93 1949.58  660.74 1970.33  661.91 1979.24  662.05
 1999.13  662.74 2023.48  663.53 2025.56  663.58 2054.39  663.66 2055.23  663.67
 2062.23  663.64 2070.08  663.59 2071.54  663.61 2095.03  663.53 2130.99  662.67
 2158.98  661.27 2167.39  661.01 2173.03  660.88 2195.16  659.82 2209.83  656.62
  2218.2  654.74 2219.46  654.51 2223.48  654.38 2227.35  654.25 2228.75  653.71
 2247.24  646.96 2251.39  645.98 2258.39  644.45 2293.91  643.98 2308.79  643.85
 2311.61  643.79 2338.16  643.67  2362.6  643.58 2369.12  643.59  2421.1  643.65
  2422.8  643.67 2424.01  643.65 2484.19  643.65 2485.53  643.66 2555.52  643.67
 2556.31  643.65 2627.57  643.57 2633.72  643.62 2638.39  643.59 2715.79  643.59
 2720.61  643.62 2724.82  643.57 2810.26  643.53 2816.85  643.59  2832.9  643.53
 2855.21  643.45 2863.14  645.34 2865.39  646.05 2870.91  648.45 2898.72  660.78
 2937.72  662.65 2949.18  663.01 2954.79  662.98 3007.94  662.55 3008.65  662.55
 3018.37  662.44 3050.94  661.16 3067.22  660.41 3092.93  658.29 3096.59  657.92
 3098.66  657.75    3102  657.57 3133.85  654.86 3163.95  653.08 3200.61  651.02
 3225.37  649.05  3252.8  647.77 3299.12  644.48 3316.82  643.62 3375.45  636.37
 3378.04  636.21 3420.48  632.21 3434.28  631.02 3435.08  630.95 3476.94  627.14
  3477.4  627.11 3477.82  627.08 3492.86  625.61 3498.48  626.03 3504.03  626.72
 3509.09     627 3521.18  627.11 3538.96   627.5 3548.87  627.66 3557.15  627.49
 3598.94  627.56 3602.54  627.52 3606.34  627.53 3645.12  628.06  3685.8  629.92
 3691.86  630.15    3703  630.67 3714.59  631.27 3760.04  633.68 3785.52  635.67
 3798.67   636.6 3821.31  639.89 3849.03  643.95 3862.04  646.76 3885.68  651.44
 3928.21  655.89 3936.24  656.71 3939.72  656.97 3981.09  659.21 3993.39  660.05
 4038.66  663.14 4059.82  665.03 4084.08  667.35 4091.55  668.03 4113.75   670.2
 4121.32  670.91 4136.91  671.85 4142.01  672.51 4148.27     674 4152.24  674.07
 4186.36  674.95 4193.32  674.93 4210.11   674.9 4211.66   674.9 4264.16  674.95
 4276.94  674.91 4330.06  674.09 4332.46     674 4350.99  673.52 4363.55  673.37
  4404.7  673.76 4406.31  673.84 4415.99  674.02 4416.68  674.03 4426.67  673.82
 4427.04  673.82 4428.71  673.58 4456.23  670.14 4474.44  667.81  4522.4  661.39
 4539.77  658.97 4555.24  657.87 4566.11  657.29 4592.45  654.12 4601.37  652.88
 4610.54  651.86  4629.9  650.28 4675.51  645.64  4687.2  644.81 4743.93  642.25
 4743.99  642.24 4744.05  642.24 4780.55  638.69 4783.42  638.64  4850.9  637.16
 4889.53  637.11 4965.82  636.97 4992.89  636.56 5076.92   635.5 5079.69  635.47
 5082.18  635.44 5096.76  635.27 5147.42  634.65 5154.06  634.79 5166.36  635.11
 5206.98  634.35 5250.99  633.42 5293.72  632.18 5325.98  631.49 5353.31  630.52
 5415.59  628.46 5448.84  626.44 5506.18  622.94  5508.8  622.84 5511.01  622.74
 5578.16  621.08 5629.79  618.26 5642.11  617.71 5646.12  617.56 5653.29  617.45
 5668.58  617.22 5708.19  616.53 5728.32  615.65 5732.99  615.43 5739.04  615.21
 5744.56  615.04 5748.75  614.86 5757.14  614.53 5770.16  614.21 5784.16  613.91
 5799.87  613.37 5814.01   612.7 5819.19   612.5 5826.87  612.21 5842.35  611.65
 5870.93  600.78 5876.14  598.52 5880.26  597.08 5884.51  595.68 5889.99  593.53
 5913.48  583.84 5993.36  583.84 5994.22  584.27 6019.58  596.49 6039.78  602.37
 6048.96  605.03 6059.26  605.27 6101.61  605.87 6116.44  605.73 6144.79  605.38
 6154.32     605 6155.67  604.95 6165.67  604.36 6192.68  602.87 6210.25  602.13
 6232.54  601.54  6241.4  601.32 6267.23     599 6283.21   597.2 6296.25  595.74
 6310.29  594.79 6315.81  594.27 6342.93  593.29  6385.6  591.13 6398.91  591.01
 6411.37  590.77 6427.98     590 6443.11  589.58  6448.1  589.42 6449.65  589.34
 6459.37  589.57 6463.23  588.59  6474.9   585.7 6481.44  583.84 6524.29  583.84
 6528.18   585.3 6534.48  587.44 6548.73  588.24  6587.3  589.79 6620.85  590.61
 6647.03  590.94 6702.23  591.14 6729.67  591.18 6776.34  590.98 6799.44  590.99
 6834.89  590.89 6852.58  590.67 6876.11  589.07 6891.62  588.38 6897.37  586.65
 6906.57  583.84 6924.09  583.84 6951.36  583.84 6953.15  583.84 6953.31  583.84
 6953.44  583.98 6964.97  587.79 6970.09  588.15 6976.16  585.99 6977.58  585.72