Proj Title=Bald Eagle Creek Example Dam Break Study
Current Plan=p03
Default Exp/Contr=0.3,0.1
English Units
Geom File=g02
Geom File=g03
Geom File=g01
Flow File=f01
Unsteady File=u02
Unsteady File=u01
Unsteady File=u04
Unsteady File=u03
Plan File=p07
Plan File=p02
Plan File=p10
Plan File=p06
Plan File=p08
Plan File=p04
Plan File=p03
Plan File=p01
Plan File=p05
Plan File=p09
Plan File=p11
Y Axis Title=Elevation
X Axis Title(PF)=Main Channel Distance
X Axis Title(XS)=Station
DSS Caption Additional Text=PMF Inflow Hydrograph
BEGIN DESCRIPTION:
The United States Army Corps of Engineers has granted access to the information in this model for instructional purposes only.  Do not copy, forward, or release the information without United States Army Corps of Engineers approval.  The results of this model do not deppict the data and final results from an official Corps of engineers study of this area.  These models have been develped for demonstration purposes only.

END DESCRIPTION:
DSS Start Date=01JAN1999
DSS Start Time=1200
DSS End Date=05JAN1999
DSS End Time=0000
DSS File=dss
DSS Export Filename=
DSS Export Rating Curves= 1 
Bald Eagle Cr.  ,Lock Haven      ,58756     U/S Bridge
DSS Export Rating Curve Sorted= 0 
DSS Export Volume Flow Curves= 0 
DXF Filename=
DXF OffsetX= 0 
DXF OffsetY= 0 
DXF ScaleX= 1 
DXF ScaleY= 10 
GIS Export Reach=Bald Eagle Cr.  ,Lock Haven      
GIS Export SA=190             
GIS Export SA=191             
GIS Export SA=192             
GIS Export SA=193             
GIS Export SA=194             
GIS Export SA=195             
GIS Export SA=255             
GIS Export Profiles= 0 
