Geom Title=Existing GIS Data Nov 2006
Program Version=4.00
Viewing Rectangle= 1853382.5513641 , 2138190.75320933 , 393225.772120498 , 200883.498813619 

River Reach=Bald Eagle Cr.  ,Lock Haven      
Reach XY= 383 
1968492.21433393289524.5233343471968872.31414777289974.642874232
1969142.38629581290264.717931889 1969182.3963561290614.810200513
1969162.39132596290934.8949239161969122.38126566291224.972102099
 1969062.3640547291705.0991872041968982.34393411292095.201516122
1968912.32420807292515.311390261  1968902.321693292775.381023223
1969052.36153962293125.4732918461969312.43117259293355.533259063
1969592.50371517 293475.565560471969932.59346872293745.637708506
1970142.65052631294085.7253415311970512.74782508294505.837336195
1970722.80276215294765.9048486321970982.87027459295005.969451447
1971533.01708574295246.0319337371971993.13702017295456.086870806
1972363.23431894295576.1191722131972583.29389161295616.129232508
1972933.38616023295586.1216872871973263.47339871295436.081840659
1973473.52833578295176.0143282221973723.59333314294905.942180186
 1973983.6629661 294675.882212971974313.75020458294405.810064935
1974593.82274716294275.7773689781974873.89741027294245.767703233
1975203.98464875294295.7823991251975554.07691737294415.812580008
1975844.15409556294375.8025197141976164.23669843294265.774853905
1976494.32393691294205.7576429391976754.39356987294265.774853905
1977024.46359738294355.7974895671977444.57559205294515.839851268
1977724.64813463294705.8897581911977984.71776759294965.959391152
1978134.75761422295196.0193583691978364.81758144295456.086870806
1978504.85491299295646.1388982531978744.91739528295796.176624356
1979105.01217898296176.2785587261979395.08935716296466.353616384
1979745.18162579296856.4580658261980055.26383412297216.552849524
1980275.32128626297576.6476332211980455.36867811297986.754992286
1980765.45088644298296.837200616 1981175.5582455298806.971830942
1981345.60312228299077.0418584521981605.67275524299317.106461267
1981825.73020738299517.1588832631982175.82247601299757.221365553
1982425.88959389300027.293513588 1982585.9319556300287.361026025
1982645.94704604300507.4205986931982856.00198311300727.478050836
1983066.05692018300997.5480783471983306.12152299301327.635316823
1983666.21630669301667.7250703741983996.30354517301947.799733483
1984286.37860282302287.8894870331984646.47550705302647.984270731
1984966.55810992302848.0366927261985206.62271274303018.081569501
1985476.69274025303258.1461723161985646.73761702303478.203624459
1985836.78752395303698.2610766021986066.84961169303978.335739711
 1986296.9095789304198.3931918541986616.99430231304428.453159071
1987037.10417645304598.498035846 1987337.1838697304798.550457841
1987617.25853281305008.6075154361988027.36589188305228.664967578
1988257.42585909 305388.707329281988587.51309757305618.767296497
 1988897.5953059305948.8545349731989247.68757452306238.931713156
1989437.73748145306458.9891652991989667.79956919306799.078918849
  1989777.827235 307169.176217621990107.91447347307649.303302725
1990518.02183254 308159.437933051990748.08392028308559.542777042
1990968.14137242309099.6849525881991228.21100538309569.809522619
1991558.29824386309999.9240323561991788.35821108310229.983999573
1991938.39805771310600.0812983441992018.41817829311080.208383449
1992098.44041941311320.2708657391992328.50038662311810.400465917
1992648.58511003312360.5451565371993008.67989372312750.647485455
1993358.77216235313030.7221485641993748.87449127313170.759480118
1994118.97179004313170.7594801181994459.06154359313060.729693785
1994849.16599303312890.684817009 1995219.2632918312620.614789499
1995659.37819609312490.5799730181996069.48767568312380.550186684
1996429.58245937312300.5300660961996839.68981844312210.505309909
1997179.77957199312230.5103400561997629.89911187312270.522520875
1998070.01401616312350.5426414631998610.15619171312570.600093606
1999000.26064115312770.6546361271999440.37554543313000.714603343
1999900.49760039313250.7796007072000310.60495946313590.869354257
2000700.70728838314091.001469509 2001060.8041926314581.131069687
2001300.86667489314881.2107629442001560.93418732315321.325667229
2001760.98872985 315661.415420782001971.04366691316031.512719551
2002141.08854369316321.5898977332002401.15605613 316651.67713621
2002641.22065894317011.7719199072002891.28565631317251.836522722
   2003251.38044317661.9438817872003711.50249496318112.063421672
2004141.61488417318492.1632355162004661.75202957318992.295350768
2005071.86150916319372.3951646132005702.02632037  319972.5524306
2006122.13831503 320382.661910192006592.26288506320852.784359696
2006982.36521398321192.8741132472007582.52247997321713.011258646
2007932.61474859322013.090951902  2008252.699472322193.138343751
2008492.76407481322223.1458889712008702.81901188322323.173160232
2008812.84667769 322473.213006862008962.88652432322673.265428855
2009142.93391617 322813.302760412009362.99348883322903.325396072
2009623.06100127322963.3426070382009883.13063423323103.377818068
2010083.18305623323333.439905809  2010253.227933323513.487297658
2010553.30550574323763.5522950212010753.36004826324093.639533498
2010903.39777436324393.7192267542010993.42253055324863.843796785
2011123.45734703325123.9113092222011303.50473888325363.973791512
2011553.56973624325614.0409094012011933.66955008325944.128147878
2012313.77148445326264.2128712812012563.83648182326434.257748056
2012883.92120522326534.2828987912013194.00341355326644.312685125
2013354.04577525326734.3353207872013504.08562188326904.380197563
2013674.12837813 327024.412498972013884.18543572327104.434740083
2014074.23534265 327024.412498972014224.27518927326914.382712636
2014404.32258112 326714.330290642014494.34521679326644.312685125
2014694.39763878326604.302624831 2014934.4622416326604.302624831
2015204.53226911326524.2803837182015554.62453773326414.252717909
2015834.69920084326244.2078411342015994.74156254326044.153298613
2016124.77637902325964.1331780252016434.85646683325854.103391691
2016784.94873545325724.0706957352016954.99361223325784.085786176
2017165.05066982 325894.115572512017435.12069733326184.190630168
2017615.16808918326444.2602631292017855.23269199 326714.33029064
2018115.30020443326964.3974085292018385.37235247327144.444800377
2018625.43483476327294.4846470052018945.51955816327454.527008707
 2019215.5917062327554.5521594422019515.66927893327814.621792404
2019815.74897218328084.6918199152020145.83621066328454.789118686
2020395.90120802328854.8960832022020625.96329576329204.988351826
2020806.01068761 329485.060894412020996.06059454329805.145617814
2021266.13062205330195.247946732 2021566.2103153330465.320094767
2021826.27994826330845.4199086122022026.33237026331155.502116941
 2022246.3898224 331545.604445862022506.45945537332045.736561111
2022736.51942258332365.8212845152023026.59660076332585.878736658
2023406.69641461332915.9659751342023696.77147227333276.060758832
2023956.84110523333536.1303917942024266.92331356333816.202934378
2024366.94846429334036.2625070462024446.97070541334196.304868747
 2024687.0331877 334346.342594852025377.21520987334666.427318254
2025627.28232776334736.4470442932025977.37459638 334756.45207444
2026227.43959375334646.4222881072026327.46686501334466.374896258
2026387.48195545334256.3199591882026447.49704589 334106.28011256
2026657.55410348334056.2675371932026907.61910085  334006.2528413
2027147.68158314333976.2452960792027387.74618595333946.237750859
2027707.83090936334026.2599919722028047.92066291334186.302353674
2028347.99823564334286.3275044092028598.06535353334366.349745522
2028818.12280567334516.3874716262029018.17522766334696.434863474
2029348.26246614334886.4868909212029688.35221969334926.496951216
2029878.40212661335006.5170718042030098.46169928335226.576644472
2030278.50909113 335406.62403632 2030488.5640282 335646.68651861
2030658.60890497335896.7515159742030868.66384204336086.803543421
2031128.73135448336186.8286941572031458.81859296336156.821148936
2031738.89325607336156.8211489362032038.97294932336276.853450343
2032339.05052205336516.9159326332032639.13021531 336847.00317111
2032939.20990857337117.0731986212033219.28457168337337.132771288
2033499.35711426337607.2027987992033839.44686781337817.259856393
2034219.54668165338027.3147934632034529.62888998338197.359670238
2034829.70858324338427.4196374542035089.77609568338677.486755343
2035379.85327386   338967.5618132035479.88054512 339177.61675007
2035739.94805756339497.701473473 2035960.0055097339677.748865322
2036270.08771803339787.7786516552036560.16489621339937.818498284
2036850.24207439340127.8684052062036990.27728542340367.930887496
2037190.33182795340738.0281862672037270.35194853341068.115424744
2037290.35697868341438.2127235152037290.35697868342068.379655247
 2037160.3221622342458.4819841662036900.25464976 342908.60152405
2036600.17495651343188.6761871592036380.11750436343318.708883115
2036240.08017281343518.7634256352036270.08771803 343798.83596822
2036460.13762495344038.900571034 2036800.2273785 344208.94544781
2037050.29449639344429.0028999532037110.30958683344879.120319312
2037070.29952654345209.2075577892036880.24961962345569.302341486
2036870.24710454345839.3744895222037040.29198132346169.461727998
2037340.36955405346559.5640569162037650.45176238346829.636204952
2038110.57381734347169.7259585022038450.66357089347329.768320204
2038810.75835458347329.7683202042039130.84307799347179.728473576
2039380.90807535347139.7162927572039630.97519324347229.741048943
2039781.01503987347589.835832641 2039921.0502509348089.967947893
2039961.06243172348310.0254000362039931.05276597348620.107608365
2039851.03264538348810.1575152882039680.98776861349030.214967431
2039590.96301242349210.2623592792039540.95043705349370.304720981
2039640.97770831349480.3345073152039831.02761523349530.347082682
 2040041.0825523349480.3345073152040271.14251952349480.334507315
 2040441.1873963349450.3269620942040701.25702926349240.272025025
2040901.30945125 349070.22714825 2041081.3568431348940.192331769
2041271.40675002348770.147454993 2041441.4516268348590.100063145
2041661.50907894348500.0753069582041971.59128727348430.057701443
2042231.66092023348440.0602165172042521.73597789348470.067761737
2042771.80309578348480.0702768112043081.88530411348430.057701443
2043231.92515074348360.0400959282043371.96036177348250.010309594
 2043522.0002084348069.9629177462043772.06732628348009.947827304
2044062.14238394348049.9578875992044372.22459227347909.920556044
2044602.28455949347809.893284784 2044882.3592226347669.858073754
2045182.43891585347619.8433778622045592.54627492347669.858073754
2045832.61087773347599.8383477142046062.67084495347369.778380498
2046302.73332724347039.6911420212046572.80547527346789.624024133
2046822.87047264346529.5565116962046982.91283434346239.479333513
2047232.97995223346149.4566978512047583.07222085346179.464243072
2047883.14979358 346259.484363662048223.23954713  346329.5040897
2048623.34651165346469.5414212542049023.45135564 346639.58629803
 2049323.5310489346809.6311748052049763.64595318347039.691142021
2050113.73822181347169.7259585022050503.84267125347249.746079091
2050793.91772891347259.7485941642051154.01251261347339.770835277
2051344.06241953347409.7884407922051654.14462786347509.815712052
2052064.25410745347739.8756792692052454.35643637347999.943191706
2052914.47849132348380.0451260752053314.58333531348670.120183733
2053644.67057379348880.1772413272053994.76284242349040.217482504
2054224.82280963 349100.234693472054484.89244259349150.247268838
2054774.96750025349180.2548140592055025.03461814349200.259844206
2055255.09458536349300.2871154662055495.15706765349530.347082682
2055625.19188413349680.3869293112055875.25900202350000.471652714
2055965.28163768 350230.531619932056095.31645416350390.573981632
2056425.40369264350580.623888554   2056675.46869350680.651159814
 2056995.5534134350740.666250256 2057355.6481971350730.663735182
2057725.74549587350720.6612201092058165.86252068350680.651159814
2058545.96233453 350540.613828262058806.03196749350370.568951485
2059016.08690456350250.536650077 2059236.1443567350210.526589783
2059636.24920069350150.5114993422060066.36371043350130.506469195
2060526.48576539 350230.531619932061106.63800123350390.573981632
2061396.71517941350520.6087981132061626.77514663350690.653674888
2062066.89217144350990.7333681442062306.95465373351260.803395655
2062707.05949772351600.8931492052063017.14170605351880.967812314
2063427.24906511352281.0726563062063707.32372822352511.134744047
2064187.45081333352761.199741411 2064557.5481121 352971.25467848
2064977.65798624353181.3096155492065517.80016178353541.406519771
2065827.88237011353841.4840925032066127.96206337354081.548695318
 2066398.0342114354231.5885419462066868.15666091354241.591057019
2067116.27289606354301.739740517
Rch Text X Y=1993148.2289745,305718.8274359
Reverse River Text= 0 

Type RM Length L Ch R = 1 ,137520  ,478.524,571.848,590.293
XS GIS Cut Line=4
1966056.93801669291992.6868693731968654.89250785290155.915929365
1969035.48428343289973.8943290081969647.74126343289642.944036973
Node Last Edited Time=Nov/06/2006 08:56:17
#Sta/Elev= 295 
       0  849.52    6.44  848.78    21.1  846.77   32.63  845.12   40.78  843.82
   58.81  839.45   84.33  832.57   85.48  832.26  111.19  827.35  130.19   823.5
  147.56  817.81  163.58  812.59  174.89  808.69  189.76  805.14   210.8  800.01
   219.6  797.87  242.14   792.3  264.31  786.91  268.34  785.31  274.03  783.14
  294.53  775.34  309.01  770.12  320.71  767.37  337.27  763.53   346.9   761.4
  353.72   759.9  373.09  753.05  398.43  743.92  399.29  743.74   400.5  743.48
  425.48  738.53  443.13  735.26  451.67  732.91  463.73  730.18  487.84  725.01
  504.04  723.38  526.97  721.41  532.55  720.97  556.43  719.26  577.25  718.15
   590.2  717.49   608.8  716.63  621.96  716.63     635   716.8  653.43  717.34
  661.19  717.44  666.67  717.49  687.38  717.78  711.37  717.96  713.57  717.97
  716.67  717.97  739.76  717.93  756.08  717.74  765.95   717.5   779.9  716.86
  800.79  715.59  818.33  714.51  843.14  713.21  844.52  713.13  845.49  713.09
  870.71  711.86   890.2  711.32   896.9  710.89  906.37  710.63  934.91  709.76
  949.28  709.38   969.6  708.89  975.47  708.73  979.61  708.61 1001.66  707.27
 1024.32     706 1027.85  705.87 1032.84  705.69 1054.04  704.87 1069.03  704.31
 1080.23   703.5 1096.07  702.47 1106.42  701.73 1113.73  701.37 1132.61  700.99
 1158.44  700.67  1159.3  700.67 1184.99  700.69 1203.15  700.58 1211.18  700.73
 1222.54  700.25 1247.85  699.44 1263.56  699.06 1285.77  697.99 1289.75  697.89
 1292.56  697.81 1315.94  696.67 1337.27  695.17 1342.13  695.01    1349   694.7
 1368.32  694.24 1381.97  693.78 1394.51  693.01 1412.24  691.77  1420.7  691.28
 1426.68  691.12 1461.53  691.74 1471.39  691.86 1473.08  691.89 1475.47  692.04
 1499.27     693 1516.09  694.08 1525.46  694.63  1538.7  695.81 1551.65  696.92
  1560.8   697.8 1601.94  700.37 1604.03  700.49 1605.51  700.57 1630.22   701.8
 1650.21  702.33 1656.41  702.66 1665.17  702.96  1682.6  703.46 1694.92  703.51
 1708.79  703.89 1728.41  703.36 1734.98   703.2 1739.63  702.84  1766.7  701.16
 1784.33  700.15 1787.36  699.93 1791.64  699.52 1813.55   697.3 1829.04  695.41
 1839.74  693.41 1854.87  690.23 1865.93  687.98 1873.75   686.6 1918.11  682.91
 1918.31   682.9 1918.45   682.9  1944.5   683.8 1963.16   685.1 1970.69  685.56
 1981.34  686.16 1996.88  687.16 2007.87  687.48 2023.07  688.22 2044.57  688.42
 2049.26  688.51 2052.57   688.5 2071.87  688.44 2097.28  688.36 2101.64  688.34
 2107.81  688.33 2127.83  688.36 2141.99  688.42 2154.02  688.45 2171.04  688.52
 2180.21  688.27 2186.69  688.04 2224.46   687.5  2231.4  687.37 2232.59  687.33
 2234.27   687.3 2258.78  685.86  2276.1  686.38 2284.97  685.66 2297.51   684.8
 2311.16  683.74 2320.81  683.36 2337.35  681.63 2360.74  679.63 2365.52  679.34
 2389.73  676.31 2410.23  674.55 2423.98  674.92 2442.11  675.94 2454.93  676.28
  2468.3  677.33 2487.21  676.35 2499.64  675.78 2520.68  675.95 2544.34  675.32
 2546.87  675.46 2550.44  675.79 2573.06   677.7 2589.05  678.37 2599.25  678.71
 2613.68  679.01 2625.44  679.11 2633.76  678.81 2651.63  677.91 2676.91  676.17
 2678.46  676.06 2704.01  672.06 2723.17  669.99 2740.14  668.78 2756.39   667.8
 2767.88  667.31 2782.58  666.39 2803.38   665.5 2812.58  665.11 2834.96  664.77
 2857.29  664.55 2866.61  664.78 2887.34  665.48    2902  666.08 2913.53  666.51
 2929.85  667.13 2939.72  667.59  2946.7  667.85 2965.91  668.65 2991.41  669.55
  2992.1  669.57 2993.08  669.61 3018.29   671.1 3036.12  671.64 3056.31  672.25
 3070.67  672.72 3080.82  673.05 3096.86  673.58 3119.55  674.32 3125.53  674.47
 3149.24  674.57 3173.98  665.45 3181.68  662.67 3186.99  660.83 3216.58  660.11
 3233.64  659.66 3243.25  659.32 3286.08  658.44  3311.6  659.16 3325.98  659.41
 3340.18  659.58 3345.26  659.71 3371.22  659.95 3385.48  659.58  3385.8  659.46
 3398.18  656.31 3439.08   656.6  3472.9   656.8  3496.4  656.89 3509.68  658.24
 3510.11  658.27 3510.34  658.32 3525.37   659.9 3541.73  659.52 3555.25  659.15
  3562.2  660.42 3593.12  666.26 3603.17  670.02 3603.56  670.18 3627.56  679.92
 3676.43     698 3678.12  698.34  3686.5  697.64 3699.04  699.09 3728.83  702.66
 3747.84  704.83  3800.4  714.33 3809.74  715.92  3826.4  716.03 3828.46  715.66
 3836.25  717.22 3855.39  720.98 3865.74  723.25 3882.33  728.27 3907.24  736.41
 3909.26  736.84 3913.02  737.65 3948.73  748.49 3963.14  754.13 3989.79  766.02
 3990.07  766.12 3990.23  766.17 4017.01  771.89 4031.72  774.78 4043.95  777.86
 4066.56  781.66 4070.88  782.45 4073.22  782.62 4097.82  783.78 4114.72  783.41
 4124.76  783.48 4143.32  782.52 4151.69  782.34 4156.22  782.05 4178.63  781.71
 4197.71  781.17 4205.56   781.5 4220.09  782.46  4232.5  783.61 4239.21  784.03
 4261.69  785.07  4280.7  786.55 4286.37  786.58 4296.86  785.69 4299.54   785.4
#Mann= 3 , 0 , 0 
       0     .06       0 3149.24     .04       0 3627.56     .08       0
Bank Sta=3149.24,3627.56
XS Rating Curve= 0 ,0
XS HTab Starting El and Incr=657.31,1, 100 
Exp/Cntr=0.3,0.1

Type RM Length L Ch R = 1 ,136948  ,859.042,871.702,878.46
Node Name=Low Water Bridge
XS GIS Cut Line=4
1966305.14967545292207.8034989331968605.25102431290553.056279807
1969283.69594219290503.4147962641970028.33303901290453.771192196
Node Last Edited Time=Nov/06/2006 08:56:17
#Sta/Elev= 282 
       0  849.45    5.06  848.31   14.16  846.69   35.02  842.67   50.03  839.52
   61.18  835.64   76.67  829.96   87.33  826.02      95  823.08  113.48  818.39
  139.18  811.66  139.64  811.54  139.97  811.45  142.01  810.56  184.94  792.14
  191.95  790.16  201.68  787.39   218.1  782.78  229.91  779.49  244.25  775.44
  264.19  769.96  270.41  767.54  274.88  765.88  302.29  752.44  319.85  743.71
  322.72  742.72   326.7  741.44  348.87  736.64  364.82  733.38  375.02  730.07
  389.21  726.06  401.18  722.53  409.79  720.41  427.33  717.79  451.72  714.82
  453.49   714.6  454.76  714.48  462.57  713.52  499.73  708.63   505.8  708.28
  514.22  707.94  531.95  707.39   544.7  707.17   558.1  706.92  576.73   706.7
  584.26   706.7  589.67  706.63  622.84  705.35  634.64  704.94  636.57  704.91
  639.24  704.86  662.72  704.33  679.61  703.84  688.87  703.37  701.75  702.83
  715.03  702.24  724.58  701.92  741.18  701.47  764.26  701.08  767.33  701.03
  769.55  701.02  793.49   700.1  814.52  699.81  819.64   699.8  826.76  699.94
   845.8  700.17  859.49  700.59  889.27   701.9  898.11  702.21  904.46  702.53
  943.39  706.14  949.43  706.67  950.41  706.72  951.78  706.77  976.57  706.58
   994.4  706.25 1002.72  705.29 1014.29   703.8 1028.87  701.01 1039.37  700.22
 1055.03  698.47  1076.8  697.92 1081.18  697.92 1084.34     698 1107.34  697.72
 1129.31  697.49 1133.49  697.55  1139.3   697.5 1174.28  697.14  1185.8  696.97
 1201.81  696.15 1211.95  695.73 1219.25  695.24 1238.11  693.59 1264.22  690.48
 1264.26  690.48 1264.32  690.48 1309.18  688.62 1316.57   688.2 1326.83  687.68
 1342.72  686.75 1354.16  686.15 1368.88   685.8 1389.34  686.31 1395.03  686.33
 1399.13  686.49 1421.18  688.38  1444.1   692.2 1447.34  692.41 1451.85  692.78
 1489.07  694.56 1499.65  694.77 1514.35  695.08  1525.8  695.19 1534.04  695.32
 1551.95  695.19 1576.86  694.91 1578.11  694.89 1579.01  694.86  1584.5   694.7
 1623.97  693.63 1630.42  693.49 1639.37   693.2 1656.57  692.43 1668.94  691.59
 1682.72  690.78 1701.88  689.51 1708.88  689.13 1713.91  688.81 1735.03  686.88
 1758.88   684.9 1761.19  684.74 1764.39  684.55 1803.85  681.41 1813.49   680.6
 1826.89  679.18 1839.65  678.31 1848.82  677.55  1865.8  676.81  1889.4  677.21
 1891.96  677.18 1893.79  677.23 1905.05  677.88 1938.76  679.66 1944.26  680.13
 1951.91  681.09 1970.42  683.02 1983.73  684.81 1996.57  684.95 2014.42  685.38
 2022.73   685.6  2028.7  685.71 2048.88  685.83 2073.67  685.51 2075.03  685.46
 2076.93  685.27 2101.19  682.81 2118.64  680.19 2139.43  678.17  2153.5   676.9
 2163.61   676.5 2179.65  674.71 2201.94   675.3 2208.58  675.48 2231.96  676.23
 2253.55  677.13 2258.11  677.21 2264.45  677.33 2284.27   677.4 2298.52  677.66
 2310.42  677.74 2326.96  678.08 2336.57  678.15 2343.49  678.33 2362.73  678.35
 2388.46  678.69 2388.88  678.68 2389.47  678.66 2415.04  677.38 2433.43  676.52
 2451.97  676.86 2467.34  676.86  2478.4  676.82  2493.5  678.66 2514.48  680.91
 2523.37  681.14 2545.81     681 2568.34  679.55 2576.99  678.87 2598.11  677.68
 2613.31  676.57 2624.27   675.3  2639.5  674.11 2650.42  673.27 2658.28  672.94
 2676.58  671.72 2702.01   671.2 2703.25   671.2 2728.88  671.45 2748.22  671.99
 2764.52  671.93 2781.19  672.03 2793.19  672.03 2807.35  671.93 2827.02  671.73
 2833.49  671.63 2837.29  671.58 2867.61  671.12 2873.89  671.03 2881.17  670.79
 2910.49   669.8 2935.82   669.4  2947.1  669.22 2960.15     669  2983.7  668.58
 3004.04  667.77  3020.3   667.2 3039.13  666.84  3056.9  666.48 3072.25  665.87
  3093.5  665.07 3106.36  664.84 3130.11  664.39 3157.75  661.97 3180.39  659.28
 3186.99  659.29 3199.26  659.09 3243.36  658.79  3269.3  658.59 3276.05  658.49
 3281.13  658.78 3339.73   659.6 3348.05  659.49 3354.36  659.34 3355.11  659.16
 3378.85   653.3 3454.61  655.57 3467.77  655.99 3471.34   657.8 3496.33   671.1
 3513.75  680.34 3526.66  687.19 3533.38  691.35  3604.1  718.82 3606.88  719.91
 3607.27  719.98 3609.12  720.03 3679.06  721.66 3687.14  722.19 3715.65  724.41
 3721.44  724.79 3752.24  726.97 3755.74  727.43 3788.82  731.23 3790.04   731.3
 3808.28  732.16 3824.33  732.92 3825.41  732.97 3858.63  736.22 3861.99  736.54
 3892.93  738.01 3898.58  738.27 3927.23  740.54 3935.16  741.19 3961.53   741.9
 3971.75  742.21 3995.83   742.7 4008.33  742.99 4030.13  743.95 4044.92  744.58
 4064.43   745.1  4081.5  745.48 4098.73  746.27 4118.09  746.95 4133.03  747.19
 4154.68  747.49 4167.32   747.6 4191.26  747.79 4201.62  747.52 4227.85  746.71
 4235.92  746.28 4260.04  744.72
#Mann= 3 , 0 , 0 
       0     .06       0 3130.11     .04       0 3496.33     .08       0
Bank Sta=3130.11,3496.33
XS Rating Curve= 0 ,0
XS HTab Starting El and Incr=654.3,1, 100 
Exp/Cntr=0.3,0.1

Type RM Length L Ch R = 1 ,136076  ,731.897,735.295,731.45
XS GIS Cut Line=6
1966520.26630501292522.2073366291967810.97032342291628.643668659
1968489.41736183291363.8834350311969200.95942945 291380.42988937
1969894.02960628291394.2917594221970721.16147603290807.987881388
Node Last Edited Time=Nov/06/2006 08:56:17
#Sta/Elev= 314 
       0  839.94    1.55  839.84    9.75  839.23   27.78  836.48   53.82  831.85
   54.02  831.81   54.15  831.77   80.25  826.52   98.55  822.16  106.49  819.19
  117.96  814.32  132.73  808.84  142.95  804.74  158.96  800.81  182.09  794.92
   185.2  794.12  187.35  793.54  211.43  783.16  231.75  774.15  246.22  770.37
   263.9  765.67  276.15  762.45  290.14  758.83  310.35  753.71  316.38  752.19
  320.55  751.18  342.61  742.91  364.95  734.99  368.85  734.18  374.48  733.07
  409.35  726.57  421.32  723.43  438.61  719.39  447.56   717.3  453.74     716
  473.79  713.71  498.14  711.27  500.02  711.02  502.75  710.73  542.54  706.43
   552.5   705.7  566.88  704.73  578.73  703.97  586.94  703.46  604.97  702.32
  631.01  700.85  631.21  700.84  631.34  700.84  657.44  699.35  675.74  698.57
  683.68  698.36  695.14  698.09  720.14  697.65  736.15  697.27  759.27  695.87
  762.39  695.73  764.54  695.59  788.62  695.51  808.94  695.26  814.86  695.88
  823.41  696.71  853.34  701.54  867.33  703.39  887.54   704.5  893.56  704.91
  897.73     705   919.8  705.61  942.13  705.19  946.04  704.93  951.67  704.06
  972.27   701.7  986.53  699.71  998.51  698.55  1015.8  696.42 1024.74  695.59
 1030.93  694.94 1050.98  692.11 1075.33  687.87 1079.93  687.67 1103.45  686.73
 1119.73  685.99 1129.68  685.82 1144.07  685.28 1164.13  684.64 1182.16  684.29
  1208.2  683.52 1208.39  683.52 1208.53  683.52 1234.63  682.94 1252.93  682.44
 1260.86  682.31 1272.33  682.15  1287.1  682.14 1297.33  682.53 1313.33  683.31
 1336.46  684.72 1339.57  684.99 1341.72  685.18 1365.81  688.84 1386.12  690.56
 1392.04  690.89 1400.59   691.1 1418.28  691.65 1430.52  691.65 1444.51  691.77
 1464.73   691.6 1470.75  691.59 1474.92  691.48 1496.99  691.25 1519.32  690.51
 1528.86  690.24 1549.46  689.33 1563.72  688.19 1569.83  687.94 1576.13   687.8
 1603.62     687 1604.32  686.98 1606.09  686.96  1632.5  686.23 1642.81  686.16
 1660.69  685.06 1681.99  685.78 1688.87  685.46  1706.5  685.75 1717.06  685.91
 1721.18  685.97 1745.25  686.16 1760.37  686.18 1773.43  685.86 1799.55   684.3
 1801.62  684.22 1806.92  683.88 1838.74   681.6 1857.99  678.45 1877.92  674.86
 1886.18  674.07 1907.33  672.19 1914.36  671.57 1917.11  671.36 1942.55  668.25
 1956.29  667.07 1970.74  666.34 1995.48  665.55 1998.92  665.42 2007.74  665.24
 2027.11  664.86 2034.67  664.83 2051.89  664.82 2073.85  664.58 2083.48  664.67
 2108.16  665.14 2111.67   665.2 2113.04  665.23 2139.85  666.07 2152.22  666.43
 2168.04  666.93 2191.41  667.54 2196.22  667.82 2208.57  668.39 2224.41  669.09
 2230.59   669.4  2252.6  669.96 2269.78  670.55 2280.78   670.8 2298.11  671.28
 2308.23  671.43 2312.51  671.45 2344.74   671.5  2349.9  671.53 2381.25   671.6
 2387.28  671.55 2417.77  671.22 2424.67  671.12 2454.28  670.64 2462.05   670.4
  2490.8  669.38 2499.43  669.23 2527.31  668.71 2536.82  668.53 2563.83  667.98
  2574.2  667.58 2600.34  666.47 2615.74  664.82 2670.23  659.16 2690.22  659.02
 2711.61  658.76  2731.8  658.58 2749.16  658.58 2760.58  658.56 2788.24  658.78
 2808.57  659.06 2833.92  659.05 2843.86  659.18 2850.76  659.65 2853.77  657.23
 2861.04  653.34 2991.29  655.81 2998.06  655.96  2999.3  656.34 3009.84  660.97
 3031.99  670.68 3036.73  673.27 3042.37  675.95 3067.86  687.91 3068.96  688.08
 3076.27  688.84 3096.54  692.26 3126.69  685.86 3148.05  680.66 3171.79   689.1
 3184.56  693.91 3209.05  697.33 3221.07  699.15  3246.3  704.27 3257.58  706.76
 3283.56  709.07 3294.09  710.06 3320.82   712.3 3330.61  713.15 3358.07  716.95
 3367.12  718.18 3395.33  719.74 3403.63  720.15 3432.59  722.41 3440.14  722.88
 3469.84  723.73 3476.65  723.87  3507.1  725.48 3513.16  725.75 3544.36  726.46
 3549.68  726.58 3581.61  727.24 3586.19  727.35 3618.87   728.6  3622.7   728.8
 3656.13  729.27 3659.21  729.34 3693.39  729.66 3695.72  729.69 3703.05  729.63
 3722.44   729.8 3738.82  729.79 3748.63  729.53 3762.47  728.89 3774.81  728.32
 3783.56  727.85    3801  727.26  3825.6  726.41 3827.18  726.36 3828.31  726.32
 3853.37   725.4 3873.05  724.68 3879.55  724.16 3888.72  723.44  3917.8  721.32
 3931.92  720.87 3951.85  720.28 3958.11  720.14 3962.54  720.05 3984.29  718.82
 4007.29  717.63 4010.47  717.55 4014.97  717.43 4036.66   716.9 4052.03  716.54
 4062.84  715.52  4078.1  714.13 4089.03  713.09 4096.78  712.56 4141.22  711.79
  4141.4  711.79 4141.52  711.78 4167.58  710.96 4186.27  710.55 4193.77  710.09
 4204.35  709.49 4219.95  708.47 4231.01  707.71 4246.14  707.27 4267.47  706.65
 4272.32  706.46 4275.76  706.32 4298.51  704.59  4320.5  703.33 4324.69  703.21
 4330.59  703.14 4350.87  702.73 4365.25  702.61 4377.06  702.06 4393.72  701.49
 4403.24  701.11    4410  700.83 4449.62  699.49 4454.74  699.32 4455.61  699.29
 4456.84  699.25  4481.8  698.25 4499.48  697.75 4507.98  697.62 4519.97  697.75
 4534.17  697.71 4544.23  697.91 4583.09  700.44 4586.54  700.63 4588.98  700.79
 4612.72  704.94 4633.72  709.06 4638.91  709.64 4646.22  710.56 4665.09  712.68
 4678.47  714.35 4691.27   717.1 4709.34  721.35 4716.91  723.01
#Mann= 3 , 0 , 0 
       0     .06       0 2600.34     .04       0 3031.99     .08       0
Bank Sta=2600.34,3031.99
XS Rating Curve= 0 ,0
XS HTab Starting El and Incr=654.34,1, 100 
Exp/Cntr=0.3,0.1

Type RM Length L Ch R = 1 ,135341  ,590.527,579.12,576.555
XS GIS Cut Line=6
1966967.05025952292919.3455665461968009.54049864292174.710590254
1968456.32233263292091.9719569831969267.14948785292108.520531847
1969855.63326529292108.5205318471970927.85538142291324.721584622
Node Last Edited Time=Nov/06/2006 08:56:17
#Sta/Elev= 331 
       0  791.98   18.29  793.26   43.99   793.4   44.46  793.41   45.12  793.36
   70.63  791.53   88.85  788.85    96.8  787.09  107.92  783.28  122.97  778.23
  133.71  774.49  170.73  767.78   175.3  766.96  178.57  766.36  201.47  760.18
  223.43  753.55  227.64  752.74  233.53  751.59  253.81  747.54  268.29  744.61
  296.34  736.52  306.15  733.67  313.15  731.65  332.31  728.13  358.01  723.48
  358.48  723.39  359.14  723.27  384.65   718.6  402.87  715.36  410.82  713.27
  421.95   710.6  447.73  704.78  463.16  702.74  484.75  700.35  489.33  699.89
  492.59  699.66   515.5  696.86  537.45  695.93  541.66  695.84  547.56  695.94
  567.83  696.25  582.31  697.09  610.36   699.5  620.17  700.16  627.17  700.69
  646.34  701.47  672.03  701.93  672.51  701.94  673.17  701.94  698.68   701.9
   716.9  701.81  724.84  701.25  735.97  700.42  761.76  698.65  777.18  697.38
  798.78  695.51  803.35  695.13  806.62   694.9  829.52  690.62  851.48  686.93