Plan Title=PMF - Froehlich Breach Parameters
Program Version=5.00
Short Identifier=PMF+FloelichBrch                                                
Simulation Date=01JAN1999,1200,05JAN1999,0000
Geom File=g02
Flow File=u02
Subcritical Flow
K Sum by GR= 0 
Std Step Tol= 0.01 
Critical Tol= 0.01 
Num of Std Step Trials= 20 
Max Error Tol= 0.3 
Flow Tol Ratio= 0.001 
Split Flow NTrial= 30 
Split Flow Tol= 0.02 
Split Flow Ratio= 0.02 
Log Output Level= 0 
Friction Slope Method= 1 
Unsteady Friction Slope Method= 2 
Unsteady Bridges Friction Slope Method= 1 
Parabolic Critical Depth
Global Vel Dist= 0 , 0 , 0 
Global Log Level= 0 
CheckData=True
Encroach Param=-1 ,0,0, 0 
Computation Interval=20SEC
Output Interval=1MIN
Run HTab= 1 
Run UNet= 1 
Run Sediment= 0 
Run PostProcess= 1 
Run WQNet= 0 
Run RASMapper= 0 
UNET Theta= 1 
UNET Theta Warmup= 1 
UNET ZTol= 0.02 
UNET ZSATol= 0.02 
UNET QTol=
UNET MxIter= 20 
UNET Max Iter WO Improvement= 5 
UNET MaxInSteps= 0 
UNET DtIC= 0 
UNET DtMin= 0 
UNET MaxCRTS= 20 
UNET WFStab= 2 
UNET SFStab= 1 
UNET WFX= 1 
UNET SFX= 1 
UNET DSS MLevel= 4 
UNET DZMax Abort= 100 
UNET Use Existing IB Tables=-1 
UNET Froude Reduction=False
UNET Froude Limit= 1 
UNET Froude Power= 10 
UNET Time Slicing=0,0, 5 
UNET Junction Losses=0
UNET D2 Coriolis=-1
UNET D2 Threads= 0 
UNET D2 Theta= 1 
UNET D2 Theta Warmup= 1 
UNET D2 Z Tol= 0.01 
UNET D2 Max Iterations= 20 
UNET D2 Equation= 0 
UNET D2 TotalICTime=1
UNET D2 RampUpTime=0.5
UNET D2 TimeStepRatio= 1 
UNET D2 Dispersion=5.93
UNET D2 RedoDryCells=0
UNET D1D2 MaxIter= 0 
UNET D1D2 ZTol=0.02
UNET D1D2 QTol=1
UNET D1D2 MaxQTol=
Instantaneous Interval=1HOUR
Mapping Interval=1HOUR
DSS File=dss
Write IC File= 0 
Write IC File at Fixed DateTime=0
IC Time=,,
Write IC File Reoccurance=
Write IC File at Sim End=0
Echo Input=False
Echo Parameters=False
Echo Output=False
Write Detailed= 0 
Computation Level Output WSErr=True
Computation Level Output FlowErr=True
Computation Level Output Vel Ch=True
Computation Level Output Vel Total=True
Computation Level Output Courant Ch=True
Computation Level Output Courant Total=True
HDF Write Warmup=0
HDF Write Time Slices=0
HDF Flush=0
HDF Compression= 1 
HDF Chunk Size= 1 
HDF Spatial Parts= 1 
HDF Use Max Rows=0
HDF Fixed Rows= 1 
Stage Flow Hydrograph=Bald Eagle Cr.  ,Lock Haven      ,80916
Stage Flow Hydrograph=Bald Eagle Cr.  ,Lock Haven      ,75908     Marsh Creek Conf
Stage Flow Hydrograph=Bald Eagle Cr.  ,Lock Haven      ,66041     Beech Cr. Confl
Stage Flow Hydrograph=Bald Eagle Cr.  ,Lock Haven      ,60323
Stage Flow Hydrograph=Bald Eagle Cr.  ,Lock Haven      ,57790
Stage Flow Hydrograph=Bald Eagle Cr.  ,Lock Haven      ,26692     Fishing Creek Co
Stage Flow Hydrograph=Bald Eagle Cr.  ,Lock Haven      ,137520
Breach Loc=Bald Eagle Cr.  ,Lock Haven      ,81454   ,True,                
Breach Method= 0 
Breach Geom=5250,446,585,0.9,0.9,True,0.5,620,3.2,2.6
Breach Start=True,676.8,,,False,,
Breach Progression= 21 
       0       0     .05    .006      .1    .024     .15    .054      .2    .095
     .25    .146      .3    .206     .35    .273      .4    .345     .45    .422
      .5      .5     .55    .578      .6    .655     .65    .727      .7    .794
     .75    .854      .8    .905     .85    .946      .9    .976     .95    .994
       1       1
Simplified Physical Breach Downcutting= 2 
       0       0       1       1
Simplified Physical Breach Widening= 2 
       0       0       1       1
Starting Notch Depth= 3.402823E+38 
Initial Piping Diameter= 3.402823E+38 
Mass Wasting Options= 0 
Mass Wasting Width= 3.402823E+38 
Mass Wasting Duration= 3.402823E+38 
Mass Wasting Final Bottom Elevation= 3.402823E+38 
Breach Use User Defined Growth Ratio=0
Breach User Defined Growth Ratio=1
Calibration Method= 0 
Calibration Iterations= 20 
Calibration Max Change=0.05
Calibration Tolerance=0.2
Calibration Maximum=1.5
Calibration Minimum=0.5
Calibration Optimization Method= 1 
Calibration Window=,,,
WQ AD Non Conservative
WQ ULTIMATE=-1
WQ Max Comp Step=1HOUR
WQ Output Interval=15MIN
WQ Output Selected Increments= 0 
WQ Output face flow=0
WQ Output face velocity=0
WQ Output face area=0
WQ Output face dispersion=0
WQ Output cell volume=0
WQ Output cell surface area=0
WQ Output cell continuity=0
WQ Output cumulative cell continuity=0
WQ Output face conc=0
WQ Output face dconc_dx=0
WQ Output face courant=0
WQ Output face peclet=0
WQ Output face adv mass=0
WQ Output face disp mass=0
WQ Output cell mass=0
WQ Output cell source sink temp=0
WQ Output nsm pathways=0
WQ Output nsm derived pathways=0
WQ Output MaxMinRange=-1
WQ Daily Max Min Mean=-1
WQ Daily Range=0
WQ Daily Time=0
WQ Create Restart=0
WQ Fixed Restart=0
WQ Restart Simtime=
WQ Restart Date=
WQ Restart Hour=
WQ System Summary=0
WQ Write To DSS=0
WQ Use Fixed Temperature=0
WQ Fixed Temperature=
Sorting and Armoring Iterations= 10 
XS Update Threshold= 0.02 
Bed Roughness Predictor= 0 
Hydraulics Update Threshold= 0.02 
Energy Slope Method= 0 
Volume Change Method= 0 
Sediment Retention Method= 0 
XS Weighting Method= 0 
Number of US Weighted Cross Sections= 1 
Number of DS Weighted Cross Sections= 1 
Upstream XS Weight=0.25
Main XS Weight=0.5
Downstream XS Weight=0.25
Number of DS XS's Weighted with US Boundary= 1 
Upstream Boundary Weight= 1 
Weight of XSs Associated with US Boundary= 0 
Number of US XS's Weighted with DS Boundary= 1 
Downstream Boundary Weight= 0.5 
Weight of XSs Associated with DS Boundary= 0.5 
Sediment Output Level= 4 
Mass or Volume Output= 0 
Output Increment Type= 1 
Profile and TS Output Increment= 10 
XS Output Flag= 0 
XS Output Increment= 10 
Write Gradation File= 0 
Read Gradation Hotstart= 0 
Gradation File Name=
Write HDF5 File= 0 
Write DSS Sediment File= 0 
SV Curve= 0 
Specific Gage Flag= 0 
