Plan Title=Twin Circular Culverts 
Version=Version 3.1 Beta  Mar 2002
Short Identifier=Twin Circ   
Simulation Date=,,,
Geom File=g02
Flow File=f01
Subcritical Flow
K Sum by GR=-1 
Std Step Tol= 0.01 
Critical Tol= 0.01 
Num of Std Step Trials= 20 
Max Error Tol= 0.3 
Flow Tol Ratio= 0.001 
Split Flow NTrial= 30 
Split Flow Tol= 0.02 
Split Flow Ratio= 0.02 
Log Output Level= 0 
Friction Slope Method= 1 
Unsteady Friction Slope Method= 2 
Calc Critical at every XS
Parabolic Critical Depth
Global Vel Dist= 0 , 0 , 0 
Global Log Level= 0 
CheckData=True
Encroach Param=-1 ,0,0, 0 
Computation Interval=1HOUR
Output Interval=1HOUR
Run HTab= 0 
Run UNet= 0 
Run PostProcess= 0 
UNET Theta= 1 
UNET ZTol= 0.02 
UNET ZSATol= 0.05 
UNET MxIter= 20 
UNET MaxInSteps= 1 
UNET DtIC= 0 
UNET DtMin= 0 
UNET MaxCRTS= 20 
UNET WFStab= 2 
UNET SFStab= 1 
UNET WFX= 1 
UNET SFX= 1 
UNET DSS MLevel= 4 
UNET Convert EG Bridges=-1 
UNET Use Existing IB Tables=-1 
UNET Froude Reduction=False
UNET Froude Limit= 1 
UNET Froude Power= 10 
Instantaneous Interval=1HOUR
Write IC File= 0 
IC Time=,,
Echo Input=False
Echo Output=False
Write Detailed= 0 
