Flow Title=Multiple Pipe Flow Data
Version=Version 3.1 Beta  Mar 2002
Number of Profiles= 4 
Profile Names=5 yr        ,10 yr       ,25 yr       ,50 yr
River Rch & RM=Spring Creek,Culvrt Reach    ,20.535  
     250     400     600    1000
Boundary for River Rch & Prof#=Spring Creek,Culvrt Reach    , 1 
Up Type= 0 
Dn Type= 1 
Dn Known WS=28.9
Boundary for River Rch & Prof#=Spring Creek,Culvrt Reach    , 2 
Up Type= 0 
Dn Type= 1 
Dn Known WS=30.2
Boundary for River Rch & Prof#=Spring Creek,Culvrt Reach    , 3 
Up Type= 0 
Dn Type= 1 
Dn Known WS=30.9
Boundary for River Rch & Prof#=Spring Creek,Culvrt Reach    , 4 
Up Type= 0 
Dn Type= 1 
Dn Known WS=31.5
DSS Import StartDate=
DSS Import StartTime=
DSS Import EndDate=
DSS Import EndTime=
DSS Import GetInterval= 0 
DSS Import Interval=
DSS Import GetPeak= 0 
DSS Import FillOption= 0 
