Flow Title=Unsteady Flow
Program Version=4.10
Use Restart= 0 
Initial Flow Loc=MISSISSIPPI     ,REACH # 17      ,321.1   ,29070
Initial RRR Elev=MISSISSIPPI     ,REACH # 17      ,301.18  ,459.3
Initial RRR Elev=MISSISSIPPI     ,REACH # 17      ,273.49  ,448.5
Boundary Location=MISSISSIPPI     ,REACH # 17      ,321.1   ,        ,                ,                ,                
Interval=6HOUR
Flow Hydrograph= 1034 
 29074.8 29074.8 30344.2 30794.9 30613.4 32316.7 34564.9 35746.6 35446.6 38129.5
 38521.6 39230.4 39333.3 38323.8 38422.4 38822.6 38323.8   37560 37654.7 38226.1
 38226.1 39127.8 38621.4 38721.8 39127.8   44676 44057.6 44261.1   44363 44159.3
 50052.8 51071.2 51186.3 51071.2 55082.7 53642.4 52871.3 52432.2 50421.3   51068
 51285.5 51619.7 52418.1 52649.9 52766.3 55066.5 54713.6 54480.3 54248.6 54830.9
 54713.6 54480.3 54364.2 54364.2 54713.6 54948.5 54713.6 54018.9 53237.853156.71
53542.91 54596.7 58016.858497.6858075.61   58498   56751 57365.6 57365.6 59830.8
 59220.4 58499.4 58027.5 57795.3 58262.4 58858.2 59708.1 60448.8 68383.8 67989.2
 67727.3 68383.8 68120.5 67466.4 66689.5 66432.6 65795.3 64299.6 65290.9 65416.5
   64792   64422 64299.6 64299.6 61296.8 60933.9 60933.9 60933.9 60694.3   60457
 60108.1 59648.9 54900.8 54789.5 54567.2 55681.2 54480.3 54596.7 55303.5 56022.1
 59220.4 59708.1 62214.1 73241.8 92030.5 94551.7 95419.8 98001.3 98107.7 92471.7
 86769.9 79381.6 81901.9 81955.3 81815.3 78755.4 79082.2 79207.1 79227.4 79352.1
 79408.2   79416 79624.8 79270.9 73970.6 73899.8 74783.5 78275.6 79761.4 83262.9
 81912.2 81441.5   83819 83915.6 84012.6 86001.2 85975.4 86089.2 85860.8 85290.6
 85253.6   87676 88914.4 90033.5 94660.4 96822.8 98107.7 97573.9  100547 98640.4
 98321.1 98321.1 97037.6 96284.9 96284.9   98853101282.9104307.2102851.7102016.5
 98534.1101388.1108726.9115233.8133017.7132575.6129613.7128424.6126502.1126076.5
125126.2123555.2123346.8122823.8122409.3  121994120756.1119934.3121166.6121270.1
120444.5120444.5120962.7121270.1121891.3121787.1122305.3123136.2123136.2122614.3
122201.1121682.2121166.6119519.3119726.8  120242120653.2120756.1121477.4124916.5
  134589142155.7  152861161699.8167423.6170656.7173344.4173950.8173200.1171840.3
168877.3  164112159064.8154179.6150124.6145207.2141675.4139537.9135949.2132240.7
129827.8127352.7126287.8125888.4  124698123507.7122317.3119830.1114321.3111374.4
110458.3109644.3  107499105753.3105650.6107807.1116458.2122823.8129394.7140009.6
144710.7148084.7151027.9152200.8151676.8149866.9147705.5146199.5143854.9140009.6
135149.9130809.4128102.6126393.3125336.5123240.3122409.3121682.2120341.6116353.8
115846.4  115744115641.7115439.5115133.4115233.8114423.6113609.4113609.4113812.8
114321.3108010.8109441.4107396.8107294.6108317.5108726.9107703.8104618.2102016.5
102330.9  103685104618.2106268.2105856.3105546.8104824.9105443.8110458.3113710.6
130701.8144589.6160999.5177442.8  189567  200523207218.7211763.4214806.3216173.1
215469.8214143.4212765.1211432.3212116.1214980.2218862.6222956.4226535.9229629.4
232036.5233567.4234249.3  233734232565.1  231341230171.3228461.5226908.3224856.2
223492.2222451.4  222296222626.5  225021229133.1234249.3240598.1259793.5253219.5
259159.9263200.7267967.1269956.7270715.7270715.7270134.8269491.1268656.1268124.6
  267073266361.9266280.7267515.6270390.5275268.3281561.4288729.7294154.4  298245
302332.2305966.3307646.2  307440305966.3302977.7299398.2295163.7290224.8283159.5
278044.5271648.5266882.5  261226255569.1250490.5245872.2241485.3238555.8  236338
234057.7233216.2232369.2231510.5230835.5230835.5230673.3230171.3230337.9230337.9
230835.5230001.4229133.1228249.1227556.7226057.9224856.2223146.4221609.4220408.2
218862.6217845.5216173.1214806.3213622.9211432.3209726.7207694.4206018.3  204185
202201.4199550.5197389.6194438.6193954.4194438.6194097.9192802.3191668.4188934.6
185577.1182278.8  179451  177285176226.7176519.7179135.6180392.9182102.2183044.8
182570.7180063.8  178300175611.1171107.5  165546159476.9  154718  149102143854.9
139895.6135379.2132020.1128317.7128854.3129613.7130479.1135039.9137444.9140724.8
  138835135833.4133462.6  131138130263.7129503.9128747.6130701.8132240.7130921.1
129503.9127781.8126287.8124392.2124074.5124494.2125019.1124811.3123866.8123346.8
121270.1122201.1122305.3123657.9124392.2123973.8123240.3  121994  120242118599.8
118497.8117373.4111781.5111070.3107909.5103165.2 98747.1 97573.9 95960.9   90368
 87336.8   86657 87901.9   95095 94224.9   97359 97681.2 97466.6   97359 97144.7
 97144.7   97359 98640.4 99489.3100231.3  103060  107192107396.8109136.2117474.9
124392.2  122722117882.9113305.6110969.8108317.5  110561117783.8122614.3  128531
132906.1135722.7136747.9135491.5132130.6131028.1128854.3126076.5123973.8123033.7
  119008116047.8115338.7112291.5110765.5111578.4114828.4115133.4  114221110765.5
106164.8104824.9102643.1102539.8103268.5103787.3106164.8110866.1109339.1108010.8
105236.8107807.1108624.5108929.8108215.8108112.6108010.8106986.4   98853100231.3
102226.4102851.7102539.8  101808100651.8 98640.4 96068.8 97251.7  100547103996.8
102851.7   98853 96822.8 94115.8 93240.8   95095 95528.2 95960.9 94115.8 94006.4
   93788 96176.4 97439.1 98001.3   97600 95636.2 94551.7 97037.6100231.3108419.7
115641.7114626.2110255.5108317.5109033.9109951.2112898.9120034.7123033.7124392.2
127352.7128854.3129178.7129613.7134248.6  140838148588.3156731.7161699.8  166122
  169465  170057166842.2  163800  159300  154600  151000148845.8148588.3148465.2
  149226151158.2154309.3160999.5168001.8173344.4174398.3172887.6171248.4169607.6
168877.3168292.2168877.3  169465178059.9181315.4182428.8183516.6183044.8182874.8
182102.2179606.2176519.7173500.1170656.7168001.8166409.9  165546  164385162835.8
  161283160861.1160438.3160718.5160438.3160438.3160164.3159883.5160164.3161699.8
166549.2171248.4175160.8183211.6  193778202349.1208701.1212116.1214478.8213449.5
209726.7208545.5207218.7205366.4203503.1202026.4  200171198701.9199550.5198549.8
200047.9201843.5204689.3  206695207377.5207694.4208041.6208884.1209050.8211062.6
213780.3216849.1221609.4229133.1235802.7238555.8241290.9242850.8243694.3242850.8
239906.8236691.9233216.2231195.3228461.5227214.3225686.8  224522  222296220915.4
219398.7217683.7215662.1213622.9211062.6208884.1205682.2203018.1199684.6196227.9
192802.3  188600  184800  181400  177100172744.5168409.6164251.1160580.6  155921
  150515145701.5140130.7136636.6132349.4129827.8124392.2123555.2123555.2123136.2
118904.6117882.9117272.3117373.4115031.1  111986108624.5109033.9109441.4110255.5
108828.5102016.5105958.8103165.2103268.5104307.2109542.5109033.9108317.5108112.6
108726.9109277.1  109700  110300  109800  109500  108500  107600  105600103315.7
101031.4 98747.1   97700 96176.4 94224.9 90701.6 91145.5 91477.7 92691.9   92802
 92911.7 92691.9 95202.8 95311.7 95311.7 89586.5 86202.6 85860.8 85633.2   83032
 79948.5 80593.6 78806.5 78332.6 76084.6 76835.2 76799.5 76595.9 75393.1 75769.8
   75274 75458.9 73601.4 73196.3 73489.6 73718.6   74142   74400   75678 81212.1
 84122.5 84619.2 84619.2 84538.8 83931.8 83228.1 82734.1 82557.1 85633.2 86544.1
 87223.9 88914.4 95202.895546.65 95311.7 91920.9 90144.6 91699.6   92582 93021.3
 91920.9 91920.9 92030.5   92141   92802   93788   93788 91367.8 87110.6 84918.6
   83773 83857.6 83418.1 83724.5 84681.6 85216.9 86430.1 88239.8 89138.5 88914.4
 85290.6 84386.3   75769 69309.4 65945.8 60009.3 55785.5 56321.7 55724.1 55870.2
 67018.8 78245.1 84052.2 84657.1 84697.1 84657.1 82508.6 78160.4   76200 70338.8
   69431 69483.4 69693.8 66012.3 66553.7 65888.3 64129.3 59911.3 57154.2 57188.8
   57458 57252.1 57722.2 61759.7 64178.8 67259.4 69181.9   69240 69272.7 69464.9
 69183.9 69106.8 68463.5 60021.8 56433.1 56482.1 56369.8   56440 62057.6 65465.5
 67621.8 68448.2 81396.6 78895.6 79144.6 88569.6 86202.6 86316.4 85975.4 86430.1
 88352.2 88127.1   86300 82950.3 79073.5 75675.2 76538.3   76700 68932.9 69378.5
 66506.7 60456.5 53141.9 48571.2 49981.3 50318.5 54305.8 53321.1 52501.8 52667.5
 52734.8 52164.7 52503.8 51308.7 51637.3 51767.2   51801 47591.3 47422.9 47514.6
 47602.7 45355.1 45249.8 43297.5 43770.3 44016.3   44132 43973.5 43903.9 43816.3
 43758.2 43693.7 43668.2 43579.2 43542.5 43599.1 43302.1   43393 39629.6 39861.4
 40019.5 40003.9   40144 40614.6 42293.8 41519.4 41310.5 41735.5 44222.6 43247.2
 45816.2 55536.9 54560.7 54526.1 67396.3 78884.8 80029.2 79526.4 78675.8 77059.6
 72327.3 71523.2 71298.9 64638.8 64709.6 59640.5 55561.6 51387.6   51725 47418.7
 44252.8 44633.1 44718.9   44625 40202.9 40568.1 40567.2 40716.940238.15 40202.9
 40190.7 40132.4 40350.7 40357.7 40568.4 40411.8 38088.1   38188   38227 38054.3
 34970.3   34949 34830.3 34810.9 34789.5 34708.5 34941.9 34808.6 40645.1 45918.2
 45966.1 40407.9   40624 40478.9 40269.5 35237.8 32215.8 32654.3 32645.4 34799.9
 34804.1 38499.7 38063.5 35161.1
DSS File=01oct98.dss
DSS Path=/MISSISSIPPI/L&D 21 TAIL/FLOW/01JAN1998/6HOUR/OBS/
Use DSS=False
CWMS InputPosition= 0 
Use Fixed Start Time=False
Fixed Start Date/Time=,
Is Critical Boundary=False
Critical Boundary Flow=
Boundary Location=MISSISSIPPI     ,REACH # 17      ,301.15  ,        ,                ,                ,                
Navigation Dam=6,1,1000,0.1,0.5,0.5, 0 ,50
Navigation Dam SFT= 0 
Navigation Dam Flow Monitor RRR=MISSISSIPPI     ,REACH # 17      ,315.5   
Navigation Dam Hinge Point RRR=MISSISSIPPI     ,REACH # 17      ,321.1   
Navigation Dam CP Hinge Point=,,,,,,,,,,,,,,
Navigation Dam CP Min Pool=459.9,459.7,459.5,459.4,459.35,459.2,459.1,459,458.9,130000,1.07,1.03,0.93,0.97,3000
Navigation Dam CP Max Pool=,,,,,,,,,,,,,,
Boundary Location=MISSISSIPPI     ,REACH # 17      ,273.47  ,        ,                ,                ,                
Navigation Dam=6,1,1000,0.1,0.5,0.5, 3 ,25
Navigation Dam SFT= 0 
Navigation Dam Flow Monitor RRR=MISSISSIPPI     ,REACH # 17      ,309.9     HANNIBAL - RM 30
Navigation Dam Hinge Point RRR=MISSISSIPPI     ,REACH # 17      ,283.23    LOUISIANA - RM 2
Navigation Dam CP Hinge Point=449.7,449.6,449.4,449.2,449.15,449,448.9,448.8,448.6,150000,1.15,1.05,0.9,0.95,3000
Navigation Dam CP Min Pool=446.1,446,445.9,445.8,445.7,445.6,445.5,445.4,445.3,150000,1.07,1.03,0.93,0.97,3000
Navigation Dam CP Max Pool=449.2,449.1,449,448.9,448.8,448.7,448.6,448.5,448.4,150000,1.07,1.03,0.93,0.97,3000
Boundary Location=MISSISSIPPI     ,REACH # 17      ,218.3   ,        ,                ,                ,                
Friction Slope=0.0001
