Geom Title=Lower Geo.  L&D 22  and 24
Program Version=5.04
Viewing Rectangle= 765108.79 , 909478.25 , 488260.77 ,-11908.16 

River Reach=MISSISSIPPI     ,REACH # 17      
Reach XY= 3 
  787887.5070171  460166.9990573  883722.8734528  284882.8620757
         844425.          33777.
Rch Text X Y=896285.0092971,407862.2026518
Reverse River Text= 0 

Type RM Length L Ch R = 1 ,321.1   ,528,528,528
Node Last Edited Time=Sep/27/2001 13:12:43
#Sta/Elev= 41 
       0     500    1600     480    2500     475    3100     470    3120     465
   11670     465   11800   489.6   11900     465   11950     460   12100     460
   12150     465   13300     465   13350     460   13550     460   14150   452.2
   14200   453.7   14350   449.8   14450   449.4   14550   449.1   14800   446.3
   14850   444.5   15000     445   15150   440.3   15250   436.3   15350     460
   15400     465   15750     470   17250     470   17400     465   17450     460
   17650     460   17700     465   17870     465   17950     484   18050     465
   18550     465   23150     470   27250     470   28250     475   28750     480
   29000     500
#Mann= 3 , 0 , 0 
       0     .08       0   13550    .028       0   15350     .08       0
#Block Obstruct= 2 , 0 
       0   11800     999   17950   29000     999
Bank Sta=13550,15350
XS Rating Curve= 0 ,0
Sediment Elevation=0
XS HTab Starting El and Incr=436.8,1, 63 
XS HTab Horizontal Distribution= 5 , 5 , 5 
Exp/Cntr=0.3,0.1

Type RM Length L Ch R = 1 ,321     ,880,1000,1300
Node Last Edited Time=Jan/04/2002 13:04:12
#Sta/Elev= 47 
       0     500     500     480     950     475    1500     470    2800     470
    3350     465   12380     465   12500   489.3   12600     465   12750     465
   12800     460   13050     460   13150     470   13250     470   13300     460
   13320   455.2   13760   455.2   13960     454   14040   452.9   14120   453.4
   14360   450.9   14480   448.3   14680   447.7   14920   444.3   15040   444.8
   15160   441.8   15360     440   15480   446.3   15560   448.2   15680   455.2
   15700     460   15800     465   16700     470   17700     470   18250     460
   18350     460   18400     465   18850     465   18900     460   19000     460
   19350     479   19500     470   24500   487.2   24590     470   27300     470
   27400     475   28200     470
#Mann= 3 , 0 , 0 
       0     .08       0   13300    .028       0   15700     .08       0
#Block Obstruct= 2 , 0 
       0   12500     999   21000       0     999
Bank Sta=13300,15700
XS Rating Curve= 0 ,0
Sediment Elevation=0
XS HTab Starting El and Incr=440.5,1, 60 
XS HTab Horizontal Distribution= 5 , 5 , 5 
Exp/Cntr=0.3,0.1

Type RM Length L Ch R = 1 ,320.8   ,1200,1450,1780
Node Last Edited Time=Jan/04/2002 13:03:18
#Sta/Elev= 45 
       0     500     150     480     350     475     700     475     710     470
    1600     470    1700     465   12130     465   12250   489.2   12350     465
   12450     460   12610   451.3   12690   449.3   12770   450.3   12890   454.7
   12970   453.4   13050   455.3   13170   453.8   13250   454.5   13410   453.9
   13450   454.9   13570   452.3   13690   451.3   13850   453.7   13890   453.1
   14050     451   14090   447.8   14210   449.2   14250   446.9   14290   447.8
   14450   444.7   15050     460   15450     465   17450     470   18350     470
   18950     475   18970     479   19000     475   19050     470   25550     475
   26550     480   27050     480   28050     475   28700     480   29550     500
#Mann= 3 , 0 , 0 
       0     .08       0   12450    .028       0   15050     .08       0
#Block Obstruct= 2 , 0 
       0   12250     999   23000       0     999
Bank Sta=12450,15050
XS Rating Curve= 0 ,0
Sediment Elevation=0
XS HTab Starting El and Incr=445.2,1, 55 
XS HTab Horizontal Distribution= 5 , 5 , 5 
Exp/Cntr=0.3,0.1

Type RM Length L Ch R = 1 ,320.4   ,740,940,1060
Node Last Edited Time=Jan/04/2002 13:02:14
#Sta/Elev= 51 
       0     500     170     480     250     475     600     475     850     470
    1350     470    1400     465   11780     465   11900   488.8   12000     465
   12100     460   12260   455.4   12300   454.7   12380   455.3   12620   455.3
   12700   453.5   12780   454.9   12820   454.6   12860   455.1   12940   455.1
   13620   454.6   13740   455.1   13860   455.3   13940   452.9   14020   452.1
   14100     453   14220   450.1   14300   451.1   14380   449.8   14540   448.6
   14660   445.4   14780   443.8   14900   445.2   15020   443.9   15100   446.3
   15180   444.4   15300     460   15350     465   15700     470   17700     465
   19250     475   19300     479   19350     475   19370     470   20100     470
   24400     475   24800     470   27500     475   27600     480   28500     480
   29100     500
#Mann= 3 , 0 , 0 
       0     .08       0   12100    .028       0   15300     .08       0
#Block Obstruct= 2 , 0 
       0   11900     999   21000       0     999
Bank Sta=12100,15300
XS Rating Curve= 0 ,0
Sediment Elevation=0
XS HTab Starting El and Incr=444.3,1, 56 
XS HTab Horizontal Distribution= 5 , 5 , 5 
Exp/Cntr=0.3,0.1

Type RM Length L Ch R = 1 ,320.2   ,1140,1150,1160
Node Last Edited Time=Sep/27/2001 13:12:43
#Sta/Elev= 49 
       0     500     700     480    1050     475    1150     465   11380     465
   11500   488.7   11600     465   11650     465   11700     460   11980   455.4
   12140     455   12220   455.2   12300   455.1   12420   453.6   12500   452.1
   12580   451.3   12700   452.8   12800     460   12850     465   13620   457.3
   13980   454.1   14140   454.9   14220   453.4   14340   454.1   14460   454.6
   14540   450.5   14620   451.3   14780   449.6   14900   446.7   14980   446.7
   15140   446.2   15300   440.9   15450     460   15500     470   15550   487.7
   15950   487.7   16040     470   18250     470   18400   487.7   18650     470
   19500     475   20650     470   23750     470   23830     475   23930     475
   24350     470   27250     475   27350     480   27500     500
#Mann= 3 , 0 , 0 
       0     .08       0   11700    .028       0   15450     .08       0
#Block Obstruct= 2 , 0 
       0   11380     999   15550   27500     999
Bank Sta=11700,15450
XS Rating Curve= 0 ,0
Sediment Elevation=0
XS HTab Starting El and Incr=441.4,1, 59 
XS HTab Horizontal Distribution= 5 , 5 , 5 
Exp/Cntr=0.3,0.1

Type RM Length L Ch R = 1 ,320     ,1760,1560,1560
Node Last Edited Time=Sep/27/2001 13:12:43
#Sta/Elev= 54 
       0     500     990     480    1010     475    1100     470    2300     465
   10880     465   11000   488.5   11100     465   11300     460   11400     455
   11440   454.6   11680   455.4   11760   455.1   11920   452.3   11960   452.8
   12080   451.7   12200     453   12240   452.6   12300     460   12320     465
   12350     470   13450     470   13600     465   13650     460   13720   455.4
   13840     457   14080   457.4   14240   456.7   14280   456.2   14520   455.6
   14600     456   14800   454.6   14960   453.1   15040   451.2   15120   450.1
   15280   445.9   15400   442.5   15480   440.1   15750     460   15850     470
   15880     470   15950   487.6   16020     475   16350     475   16380     470
   18850     470   19550   487.7   19750     470   20050     475   21650     475
   21670     470   27050     470   27350     475   27550     500
#Mann= 3 , 0 , 0 
       0     .08       0   11300    .028       0   15750     .08       0
#Block Obstruct= 2 , 0 
       0   11000     999   15950   27550     999
Bank Sta=11300,15750
XS Rating Curve= 0 ,0
Sediment Elevation=0
XS HTab Starting El and Incr=440.6,1, 59 
XS HTab Horizontal Distribution= 5 , 5 , 5 
Exp/Cntr=0.3,0.1

Type RM Length L Ch R = 1 ,319.7   ,760,1550,1900
Node Last Edited Time=Sep/27/2001 13:12:43
#Sta/Elev= 56 
       0     500     800     480     900     475    1400     470    3560     465
   10180     465   10300   488.3   10400     465   10450     465   10850     460
   10860   455.3   10900     452   10940   449.5   11060   450.7   11180   452.5
   11260   450.4   11340   451.6   11460   452.7   11580   450.5   11660   450.3
   11700     460   11750     465   12200     470   13600     470   13850     465
   13900     460   14020     451   14100   451.9   14180     451   14220   452.1
   14300   452.2   14340   452.6   14380   451.5   14580   454.3   14660   451.5
   14780   452.5   14900   449.7   15060   446.6   15140   449.6   15220   444.9
   15300   442.8   15380     443   15580     437   15700     460   15790     460
   15900   487.5   15990     470   20600     470   20650     475   20700     470
   21700   487.7   21850     470   26600     470   27300     475   27900     480
   28600     500
#Mann= 3 , 0 , 0 
       0     .08       0   10850    .028       0   15700     .08       0
#Block Obstruct= 2 , 0 
       0   10300     999   21700   28600     999
Bank Sta=10850,15700
XS Rating Curve= 0 ,0
Sediment Elevation=0
XS HTab Starting El and Incr=437.5,1, 62 
XS HTab Horizontal Distribution= 5 , 5 , 5 
Exp/Cntr=0.3,0.1

Type RM Length L Ch R = 1 ,319.4   ,1350,1600,1600
Node Last Edited Time=Sep/27/2001 13:12:43
#Sta/Elev= 48 
       0     500     500     480     900     475    1200     470    2900     465
    9780     465    9900   488.1    9950     460   10000     465   10500     465
   10550     460   10590   446.9   10670   447.9   10750   446.1   10830   446.1
   10910   447.6   10990   447.5   11030   445.7   11110   444.2   11150   449.6
   11200     460   11250     465   11500     470   13100     470   13700     465
   13750     460   13890   456.9   14010   456.9   14170   450.4   14210   445.3
   14250   445.8   14490     444   14650   438.4   14690   441.1   14770   437.1
   14850   440.1   14930   436.6   15050     439   15150     460   15200     465
   15300   487.4   15420     465   18700     465   23300     470   27100     470
   27900     475   28550     480   28600     500
#Mann= 3 , 0 , 0 
       0     .08       0   10550    .028       0   15150     .08       0
#Block Obstruct= 2 , 0 
       0    9900     999   15300   28600     999
Bank Sta=10550,15150
XS Rating Curve= 0 ,0
Sediment Elevation=0
XS HTab Starting El and Incr=437.1,1, 63 
XS HTab Horizontal Distribution= 5 , 5 , 5 
Exp/Cntr=0.3,0.1

Type RM Length L Ch R = 1 ,319.1   ,2640,2880,2880
Node Last Edited Time=Sep/27/2001 13:12:43
#Sta/Elev= 50 
       0     500     250     480     700     475     800     470    2550     465
    9280     465    9400   487.8    9480     460    9500     460    9600     465
    9750     460    9760   453.2    9800   446.8    9880   449.2    9960   448.6
   10040   449.6   10120   448.5   10240   453.7   10320   452.8   10400   452.3
   10480     455   10500     460   10550     465   10650     470   12550     470
   12600     460   12880   456.9   13160   456.9   13280   452.7   13320   448.6
   13560   443.2   13840   435.9   13960   440.8   14000     440   14200   442.7
   14250     460   14350     465   14360     465   14450   487.4   14570     465
   17450     465   19500     460   19900     460   21850     465   21900     470
   22600     465   25050     465   27350     470   28150     475   28250     500
#Mann= 3 , 0 , 0 
       0     .08       0    9750    .028       0   14250     .08       0
#Block Obstruct= 2 , 0 
       0    9400     999   14450   28250     999
Bank Sta=9750,14250
XS Rating Curve= 0 ,0
Sediment Elevation=0
XS HTab Starting El and Incr=436.4,1, 64 
XS HTab Horizontal Distribution= 5 , 5 , 5 
Exp/Cntr=0.3,0.1

Type RM Length L Ch R = 1 ,318.6   ,2050,2060,2080
Node Last Edited Time=Sep/27/2001 13:12:43
#Sta/Elev= 42 
       0     500     850     480     900     475    1400     470    2100     470
    2500     465    8980     465    9100   487.5    9150     465    9400     465
    9450     460   10700     460   10750     465   11300     465   11350     460
   11475     456   11595   455.7   11725     453   11825     454   11975     445
   12225   449.5   12325     447   12375   448.7   12425   448.3   12575     449
   12745   443.6   12805     447   13025   437.5   13150     449   13250     460
   13350     470   13430     470   13500   487.3   13620     465   21300     465
   21400     460   22000     460   22200     470   22210     465   24700     465
   27350     475   27450     500
#Mann= 3 , 0 , 0 
       0     .08       0   11350    .028       0   13250     .08       0
#Block Obstruct= 2 , 0 
       0    9100     999   13500   27450     999
Bank Sta=11350,13250
XS Rating Curve= 0 ,0
Sediment Elevation=0
XS HTab Starting El and Incr=438,1, 62 
XS HTab Horizontal Distribution= 5 , 5 , 5 
Exp/Cntr=0.3,0.1

Type RM Length L Ch R = 1 ,318.2   ,2380,2160,2040
Node Last Edited Time=Sep/27/2001 13:12:43
#Sta/Elev= 41 
       0     500    1050     480    1700     475    1800     470    3800     465
    8700     465    8800   487.2    8850     465    9350     465    9400     460
   10300     460   10600   453.7   10700     448   10800   439.5   10950   438.4
   11150   435.4   11250     439   11350     438   11500   443.7   11580     442
   11800     449   11950   446.9   12150     451   12225     450   12300     455
   12400     460   12450     465   12570     465   12650   482.9   12700     465
   15650     465   15660     460   15990     460   16000     465   19050     465
   21850     460   22600     460   25350     465   26750     470   27050     475
   27200     500
#Mann= 3 , 0 , 0 
       0     .08       0   10300    .028       0   12400     .08       0
#Block Obstruct= 2 , 0 
       0    8800     999   12650   27200     999
Bank Sta=10300,12400
XS Rating Curve= 0 ,0
Sediment Elevation=0
XS HTab Starting El and Incr=435.9,1, 64 
XS HTab Horizontal Distribution= 5 , 5 , 5 
Exp/Cntr=0.3,0.1

Type RM Length L Ch R = 1 ,317.8   ,1960,2100,2100
Node Last Edited Time=Sep/27/2001 13:12:43
#Sta/Elev= 44 
       0     500     200     480     210     475    4200     470    4900     470
    5000     475    5100     492    5200     465    9200     465    9250     460
    9500     460    9550     465   10100     465   10300     460   10500   451.1
   10650   449.6   11000   434.2   11100     436   11150   437.9   11200   437.1
   11700     447   11800     432   11900   450.3   12000   449.6   12100     460
   12150     465   12230     465   12300   482.6   12390     465   13500     465
   15200     460   17300     460   18000     465   18600     465   22100     460
   22370     460   22400     465   23200     465   23220     470   23270     465
   24550     465   26700     470   26800     475   26870     500
#Mann= 3 , 0 , 0 
       0     .08       0   10300    .028       0   12100     .08       0
#Block Obstruct= 2 , 0 
       0    5100     999   12300   26870     999
Bank Sta=10300,12100
XS Rating Curve= 0 ,0
Sediment Elevation=0
XS HTab Starting El and Incr=432.5,1, 68 
XS HTab Horizontal Distribution= 5 , 5 , 5 
Exp/Cntr=0.3,0.1

Type RM Length L Ch R = 1 ,317.4   ,2280,2400,2420
Node Last Edited Time=Sep/27/2001 13:12:43
#Sta/Elev= 41 
       0     500     150     480    1200     480    1250     475    1720     475
    1800     490    1850     480    2550     475    2600     460    2700     460
    2800     475    6000     465    8150     465    8200     460    8450     460
    8500     465    9200     465    9300     460    9930   453.5   10130   451.9
   10430   442.8   10630   443.1   10830   442.9   10930   441.8   11130   444.9
   11330     436   11450     442   11550     460   11600     465   11630     465
   11700   482.3   11790     465   17000     465   18260     460   18750     460
   19450     465   22000     465   23700     470   26650     470   26750     475
   26850     500
#Mann= 3 , 0 , 0 
       0     .08       0    9300    .028       0   11550     .08       0
#Block Obstruct= 2 , 0 
       0    1800     999   11700   26850     999
Bank Sta=9300,11550
XS Rating Curve= 0 ,0
Sediment Elevation=0
XS HTab Starting El and Incr=436.5,1, 64 
XS HTab Horizontal Distribution= 5 , 5 , 5 
Exp/Cntr=0.3,0.1

Type RM Length L Ch R = 1 ,317     ,1800,2350,2450
Node Last Edited Time=Sep/27/2001 13:12:43
#Sta/Elev= 44 
       0     500     250     475    3950     475    4100     470    5850     465
    6900     460    7100     460    7150     465    8200     465    8250     460
    8680   457.8    8960   451.1    9000   451.2    9160   449.8    9200   447.3
    9240   446.8    9320   447.2    9560   442.2    9680   443.4    9760     443
    9960   446.2   10040   440.8   10120   442.3   10280   440.1   10360   439.1
   10480   435.2   10560   438.1   10600   452.5   10700     460   10750     465
   10830     465   10900     482   10990     465   19300     465   19400     460
   19950     460   20600     465   24580     465   24600     470   25100     465
   25800     470   26300     475   26400     475   26500     500
#Mann= 3 , 0 , 0 
       0     .08       0    8250    .028       0   10700     .08       0
#Block Obstruct= 2 , 0 
       0     250     999   10900       0     999
Bank Sta=8250,10700
XS Rating Curve= 0 ,0
Sediment Elevation=0
XS HTab Starting El and Incr=435.7,1, 64 
XS HTab Horizontal Distribution= 5 , 5 , 5 
Exp/Cntr=0.3,0.1

Type RM Length L Ch R = 1 ,316.5   ,2120,1800,1780
Node Last Edited Time=Sep/27/2001 13:12:43
#Sta/Elev= 46 
       0     495     200     485     400     480    1300     475    4000     475
    4500     470    4600     465    6600     465    6650     460    6900     460
    7000     465    8000     465    8050     460    8120   445.1    8200   445.6
    8360     452    8440     452    8520   448.4    8680   449.1    8800   450.8
    8840   449.2    9000   449.2    9040   447.9    9080   449.4    9320   447.2
    9360   443.7    9440   442.7    9560     442    9680   444.8    9760   448.6
    9880   450.6   10040   452.1   10080   452.7   10160   450.2   10650     460
   10700     465   10980     465   11050   481.7   11140     465   21000     465
   21700     460   23050     465   25850     465   26230     470   26550     475
   26680     500
#Mann= 3 , 0 , 0 
       0     .08       0    8050    .028       0   10650     .08       0
#Block Obstruct= 2 , 0 
                           11050   26680     999
Bank Sta=8050,10650
XS Rating Curve= 0 ,0
Sediment Elevation=0
XS HTab Starting El and Incr=442.5,1, 58 
XS HTab Horizontal Distribution= 5 , 5 , 5 
Exp/Cntr=0.3,0.1

Type RM Length L Ch R = 1 ,316     ,4500,2400,1400
Node Last Edited Time=Sep/27/2001 13:12:43
#Sta/Elev= 53 
       0     490     100     485     150     480    1100     475    3400     475
    4500     470    5200     465    7700     465    7750     460    7800   456.6
    7880   451.3    8000   449.8    8120   449.7    8160     449    8320   449.9
    8520   448.7    8640   448.1    8760   444.9    8920   447.2    9000   447.2
    9200   449.4    9320   450.3    9440   450.1    9600   452.2    9720   452.4
    9800   450.5    9920   451.8   10120   452.5   10200   453.2   10240     451
   10400   452.3   10440   451.7   10520   453.5   10640   452.4   10950     460
   11000     470   11600     465   11650     460   11800     460   12000     465
   12280     465   12350   481.4   12440     465   22250     465   22850     460
   23350     460   24550     465   24750     465   24950     460   26000     460
   27050     465   27200     475   27250     500
#Mann= 3 , 0 , 0 
       0     .08       0    7750    .028       0   10950     .08       0
#Block Obstruct= 2 , 0 
       0     100     999   12350       0     999
Bank Sta=7750,10950
XS Rating Curve= 0 ,0
Sediment Elevation=0
XS HTab Starting El and Incr=445.4,1, 55 
XS HTab Horizontal Distribution= 5 , 5 , 5 
Exp/Cntr=0.3,0.1

Type RM Length L Ch R = 1 ,315.5   ,3560,2980,2320
Node Last Edited Time=Sep/27/2001 13:12:43
#Sta/Elev= 49 
       0     500     750     495    1150     490    1800     485    2600     480
    3200     475    3460     475    3500     483    3580     465    8500     465
    8550     460    8620   443.9    8700     443    8820   441.2    9020   439.4
    9100   440.9    9180   439.9    9300   443.7    9420   443.8    9500   445.8
    9660   449.5    9780   449.8    9900     451    9980   450.4   10060   451.1
   10140   452.2   10220   452.1   10340   453.8   10420   453.7   10850     460
   10900     465   11900     465   11950     460   12150     460   12200     465
   12580     465   12650     481   12730     465   22450     465   23550     460
   24050     460   24650     465   25650     465   25750     460   26450     460
   27050     465   27350     475   27450     480   27550     500
#Mann= 3 , 0 , 0 
       0     .08       0    8550    .028       0   10850     .08       0
#Block Obstruct= 2 , 0 
       0    3500     999   12580   27550     999
Bank Sta=8550,10850
XS Rating Curve= 0 ,0
Sediment Elevation=0
XS HTab Starting El and Incr=439.9,1, 60 
XS HTab Horizontal Distribution= 5 , 5 , 5 
Exp/Cntr=0.3,0.1

Type RM Length L Ch R = 1 ,315     ,3560,3200,2920
Node Last Edited Time=Sep/27/2001 13:12:43
#Sta/Elev= 55 
       0     500     100     480    2100     475    4500     475    4600     470
    5930     470    6000     483    6080     465    7900     465    7950     460
    8000     460    8050     465    9400     465    9450     460    9480   441.7
    9600   437.6    9680   438.6    9760     438   10000   443.7   10160   445.1
   10280   446.7   10360   442.4   10440   447.1   10480   444.8   10560   447.5
   10640   444.9   10720     447   10840   445.5   11000   449.6   11040   452.6
   11120   451.5   11240   454.3   11280   453.7   11290     460   11300     465
   11750     465   11800     460   12100     460   12150     465   12500     460
   13400     460   13500     465   13580     465   13650   480.7   13730     465
   16900     465   16950     460   17350     465   19750     465   20850     460
   26150     460   27350     465   27950     475   28550     480   28650     500
#Mann= 3 , 0 , 0 
       0     .08       0    9450    .028       0   11290     .08       0
#Block Obstruct= 2 , 0 
       0    6000     999   13650   28650     999
Bank Sta=9450,11290
XS Rating Curve= 0 ,0
Sediment Elevation=0
XS HTab Starting El and Incr=438.1,1, 62 
XS HTab Horizontal Distribution= 5 , 5 , 5 
Exp/Cntr=0.3,0.1

Type RM Length L Ch R = 1 ,314.5   ,2740,1940,2000
Node Last Edited Time=Sep/27/2001 13:12:43
#Sta/Elev= 61 
       0     500     350     495     800     490    1400     485    2300     480
    2650     475    3950     475    4100     480    4200     485    4500     485
    4900     490    5400     485    5900     485    6000     490    6400     490
    6500     485    6600     465    8170     465    8250     481    8320     465
    9450     465    9650     460    9750     460    9850     465   11150     465
   11200     460   11290   458.9   11410   448.3   11490   447.6   11610   450.3
   11770     444   11850     443   11970   440.6   12090   439.7   12210   445.5
   12290   443.8   12370     447   12490     446   12530   448.4   12690   444.5
   12810   442.4   12890     440   12930   440.1   13010   458.7   13050     460
   13100     465   14200     465   14250     460   14650     460   14750     465
   14780     465   14850   480.3   14930     465   25750     465   25950     460
   26350     460   26400     465   28400     465   28950     470   29350     480
   29750     500
#Mann= 3 , 0 , 0 
       0     .08       0   11200    .028       0   13050     .08       0
#Block Obstruct= 2 , 0 
       0    8250     999   14850   29750     999
Bank Sta=11200,13050
XS Rating Curve= 0 ,0
Sediment Elevation=0
XS HTab Starting El and Incr=440.2,1, 60 
XS HTab Horizontal Distribution= 5 , 5 , 5 
Exp/Cntr=0.3,0.1

Type RM Length L Ch R = 1 ,314     ,2740,2700,2600
Node Last Edited Time=Sep/27/2001 13:12:43
#Sta/Elev= 61 
       0     500     350     485    1350     485    3950     480    4050     485
    4200     490    4900     490    5300     485    5900     485    6070     480
    6100     475    6120     470    6300     470    6600     465    7700     465
    7800     460   10300     460   10400   480.7   10470     465   11200     465
   11400     460   11500     460   11600     465   12900     465   12920     460
   13200     460   13250     465   13300     460   13880   452.7   13960   438.6
   14040   448.3   14160   445.9   14240   450.7   14400   448.2   14520   439.3
   14600     439   14680   437.8   14840     441   15000     443   15160   447.3
   15200   445.7   15320   448.3   15400   450.4   15560   448.3   15680   451.4
   16250     460   16300     465   16490     465   16550     480   16630     465
   25300     465   25550     460   26500     465   27150     465   27450     460
   27750     460   28050     465   29450     465   29950     470   30200     475
   30250     500
#Mann= 3 , 0 , 0 
       0     .08       0   13300    .028       0   16250     .08       0
#Block Obstruct= 2 , 0 
       0   10400     999   16550   30250     999
Bank Sta=13300,16250
XS Rating Curve= 0 ,0
Sediment Elevation=0
XS HTab Starting El and Incr=438.3,1, 62 
XS HTab Horizontal Distribution= 5 , 5 , 5 
Exp/Cntr=0.3,0.1

Type RM Length L Ch R = 1 ,313.5   ,2960,2840,2780
Node Last Edited Time=Sep/27/2001 13:12:43
#Sta/Elev= 61 
       0     500     700     480    2100     475    4500     475    4750     470
    5050     465    5250     465    5400     470    5500     475    5950     470
    7600     465   10500     460   13300     460   13400   480.5   13470     465
   14600     465   14700     460   14850     460   15000     465   15650     465
   15700     460   16000     460   16050     465   16800     465   16850     460
   16920   443.6   17000   439.1   17120   439.6   17280   446.4   17320   447.4
   17400     447   17440   444.2   17560   445.2   17680   447.5   17760   446.7
   17800   447.4   18000   449.4   18120   450.9   18240     451   18520   452.5
   18720   451.5   18920     451   19000   452.2   19160   452.6   19200     460
   19220     465   19390     465   19450   479.7   19530     465   28150     465
   28350     460   28450     465   29750     465   29850     460   30150     460
   30250     465   30600     465   30650     460   31150     460   31400     475
   31550     500
#Mann= 3 , 0 , 0 
       0     .08       0   16850    .028       0   19200     .08       0
#Block Obstruct= 2 , 0 
       0   13400     999   19450   31550     999
Bank Sta=16850,19200
XS Rating Curve= 0 ,0
Sediment Elevation=0
XS HTab Starting El and Incr=439.6,1, 60 
XS HTab Horizontal Distribution= 5 , 5 , 5 
Exp/Cntr=0.3,0.1

Type RM Length L Ch R = 1 ,313     ,2980,2830,2800
Node Last Edited Time=Sep/27/2001 13:12:43
#Sta/Elev= 63 
       0     500     100     480     600     475    1750     475    2450     470
    3800     470    4820     460    4950     470    7000     470    7200     460
    9800     460    9830     465   11500     465   11570     460   11900     455
   12000     455   12020     460   12240     465   15570     465   15650   480.2
   15700     460   15900     460   15950     465   16150     465   16200     460
   16650     460   16750     465   18430     465   18450     460   18650     460
   18700     465   18800     460   19610   450.9   19730   450.3   19850   450.6
   19930   450.4   20050   445.8   20130   448.9   20250   448.5   20330   446.3
   20410   444.4   20530     443   20690   446.5   20810   444.9   20850   446.7
   20890   445.1   21050   447.4   21090   444.3   21130   446.1   21210   446.2
   21370   451.4   21450     460   21500     465   21590     465   21650   479.3
   21730     465   25350     465   25950     460   29700     460   30050     465
   31750     465   31950     475   32250     500
#Mann= 3 , 0 , 0 
       0     .08       0   18800    .028       0   21450     .08       0
#Block Obstruct= 2 , 0 
       0   15650     999   21650   32250     999
Bank Sta=18800,21450
XS Rating Curve= 0 ,0
Sediment Elevation=0
XS HTab Starting El and Incr=443.5,1, 56 
XS HTab Horizontal Distribution= 5 , 5 , 5 
Exp/Cntr=0.3,0.1

Type RM Length L Ch R = 1 ,312.5   ,2300,2300,2280
Node Last Edited Time=Sep/27/2001 13:12:43
#Sta/Elev= 48 
       0     500     200     480     260     475     550     470    1650     470
    3450     465    6400     470    7200     465    8900     460   13100     460
   13170     455   13700     455   15950     460   17900     460   18000   479.9
   18080     460   18500     460   18650     465   20000     465   20050     460
   20200     460   20500     465   20600     460   21400   454.1   21520   453.3
   21640   452.3   21760   450.5   21840   449.7   21920   451.2   22040   448.3
   22160   446.9   22240   443.5   22400   439.9   22440   437.8   22520   438.1
   22680   437.1   22800   434.1   22920   430.9   23050     460   23100     465
   23140     465   23200     479   23270     465   25050     465   26500     460
   32200     460   32350     475   32700     500
#Mann= 3 , 0 , 0 
       0     .08       0   20600    .028       0   23050     .08       0
#Block Obstruct= 2 , 0 
       0   18000     999   23200   32700     999
Bank Sta=20600,23050
XS Rating Curve= 0 ,0
Sediment Elevation=0
XS HTab Starting El and Incr=431.4,1, 69 
XS HTab Horizontal Distribution= 5 , 5 , 5 
Exp/Cntr=0.3,0.1

Type RM Length L Ch R = 1 ,312.1   ,840,960,960
Node Last Edited Time=Jan/04/2002 13:07:08
#Sta/Elev= 48 
       0     500      80     480     200     475     400     470    1200     465
    2500     460   14850     460   14900     455   15650     455   15660     460
   20350     460   20500   479.7   20560     465   21200     465   21250     460
   21600     460   21700     465   21900     465   21950     460   22600     460
   22700     465   22800     460   23050     460   23200     465   23450     460
   23820   455.2   24060   443.4   24220   438.8   24300   438.7   24460     439
   24500   437.1   24620     439   24820   442.4   24860   440.2   24900   442.8
   24980   440.6   25020   442.1   25100   442.1   25260   445.8   25300     460
   25400     465   26150     465   26200   487.7   31600   487.7   31900     465