Flow Title=UNSTEADY FLOW
Program Version=4.10
Use Restart= 0 
Initial Flow Loc=MISSISSIPPI     ,REACH # 11      ,750.1   ,33183
Initial RRR Elev=MISSISSIPPI     ,REACH # 11      ,714.4   ,644.5
Boundary Location=MISSISSIPPI     ,REACH # 11      ,750.1   ,        ,                ,                ,                
Interval=6HOUR
Flow Hydrograph= 1460 
   33183   33421   33517   33542   33567   33592   33600   33600   33600   33600
   33550   33475   33400   33325   33250   33175   33100   33025   32850   32625
   32400   32175   32000   31850   31700   31550   31198   30746   30293   29841
   29625   29527   29430   29332   29283   29258   29233   29208   29183   29158
   29133   29108   29250   29475   29700   29925   30200   30500   30800   31100
   31117   30992   30867   30742   30567   30367   30167   29967   29116   27941
   26766   25591   25133   25033   24933   24833   24233   23383   22533   21683
   21650   22025   22400   22775   22700   22400   22100   21800   21650   21575
   21500   21425   21450   21525   21600   21675   21750   21825   21900   21975
   22017   22042   22067   22092   22133   22183   22233   22283   22717   23342
   23967   24592   25067   25467   25867   26267   26367   26317   26267   26217
   25867   25367   24867   24367   24117   23992   23867   23742   23717   23742
   23767   23792   23850   23925   24000   24075   24117   24142   24167   24192
   24233   24283   24333   24383   24450   24525   24600   24675   24667   24617
   24567   24517   24483   24458   24433   24408   24583   24858   25133   25408
   25133   24583   24033   23483   23083   22758   22433   22108   22233   22583
   22933   23283   23300   23150   23000   22850   22800   22800   22800   22800
   22817   22842   22867   22892   22967   23067   23167   23267   23467   23717
   23967   24217   24517   24842   25167   25492   25600   25600   25600   25600
   25383   25058   24733   24408   24200   24050   23900   23750   23667   23617
   23567   23517   23417   23292   23167   23042   22967   22917   22867   22817
   22850   22925   23000   23075   23433   23933   24433   24933   25050   24975
   24900   24825   24733   24633   24533   24433   24367   24317   24267   24217
   24350   24575   24800   25025   25534   26184   26834   27484   28317   29242
   30167   31092   31550   31775   32000   32225   32700   33300   33900   34500
   35350   36325   37300   38275   39550   40975   42400   43825   44550   44925
   45300   45675   46350   47175   48000   48825   50050   51475   52900   54325
   55834   57384   58934   60484   61834   63084   64334   65584   67000   68500
   70000   71500   73667   76167   78667   81167   83000   84500   86000   87500
   88534   89334   90134   90934   91333   91533   91733   91933   91950   91875
   91800   91725   91517   91242   90967   90692   90304   89859   89415   88971
   88104   87026   85947   84869   84175   83673   83170   82668   81751   80626
   79501   78376   77667   77167   76667   76167   75634   75084   74534   73984
   73400   72800   72200   71600   70834   69984   69134   68284   67917   67792
   67667   67542   67225   66813   66400   65988   65708   65496   65283   65071
   64933   64833   64733   64633   64583   64558   64533   64508   64383   64208
   64033   63858   63600   63300   63000   62700   62400   62100   61800   61500
   61084   60609   60134   59659   59400   59250   59100   58950   58733   58483
   58233   57983   57351   56526   55701   54876   54467   54267   54067   53867
   53700   53550   53400   53250   53150   53075   53000   52925   52334   51484
   50634   49784   49483   49458   49433   49408   49483   49608   49733   49858
   49933   49983   50033   50083   49900   49600   49300   49000   48684   48359
   48034   47709   47700   47850   48000   48150   48133   48033   47933   47833
   47917   48092   48267   48442   48725   49062   49400   49737   50832   52307
   53782   55257   56607   57895   59182   60470   61077   61342   61607   61872
   62581   63512   64444   65375   67037   69066   71094   73123   75363   77709
   80056   82402   84520   86524   88527   90531   91588   92170   92752   93335
   93007   92222   91438   90654   89804   88922   88040   87158   86602   86210
   85817   85425   84662   83714   82765   81817   81000   80250   79500   78750
   78209   77771   77334   76896   76259   75521   74784   74046   72776   71237
   69699   68161   66798   65524   64249   62975   61700   60426   59151   57877
   57190   56798   56405   56013   55435   54765   54094   53424   52351   51076
   49801   48526   47151   45726   44301   42876   42117   41692   41267   40842
   40750   40825   40900   40975   40800   40500   40200   39900   39417   38842
   38267   37692   37034   36334   35634   34934   34850   35075   35300   35525
   36016   36641   37266   37891   38000   37850   37700   37550   37450   37375
   37300   37225   37233   37283   37333   37383   37433   37483   37533   37583
   37500   37350   37200   37050   36684   36209   35734   35259   34650   33975
   33300   32625   32100   31650   31200   30750   30650   30725   30800   30875
   30684   30359   30034   29709   29717   29892   30067   30242   30100   29800
   29500   29200   29150   29225   29300   29375   29117   28692   28267   27842
   27434   27034   26634   26234   26133   26183   26233   26283   26317   26342
   26367   26392   26267   26067   25867   25667   25317   24892   24467   24042
   23917   23942   23967   23992   23550   22875   22200   21525   20767   19967
   19167   18367   17484   16559   15634   14709   14700   15150   15600   16050
   16450   16825   17200   17575   17983   18408   18833   19258   19250   19025
   18800   18575   18600   18750   18900   19050   18784   18309   17834   17359
   16834   16284   15734   15184   15450   16125   16800   17475   19050   21075
   23100   25125   27016   28841   30666   32491   33267   33517   33767   34017
   34067   34017   33967   33917   33883   33858   33833   33808   34416   35341
   36266   37191   37467   37417   37367   37317   37283   37258   37233   37208
   37400   37700   38000   38300   38433   38483   38533   38583   38533   38433
   38333   38233   38150   38075   38000   37925   37667   37317   36967   36617
   36084   35459   34834   34209   34450   35125   35800   36475   37133   37783
   38433   39083   39500   39800   40100   40400   40850   41375   41900   42425
   43249   44224   45199   46174   46833   47333   47833   48333   48567   48667
   48767   48867   49017   49192   49367   49542   49833   50183   50533   50883
   50967   50917   50867   50817   50842   50904   50967   51029   51366   51841
   52316   52791   53200   53575   53950   54325   54525   54637   54750   54862
   54875   54838   54800   54763   54517   54167   53817   53467   52601   51476
   50351   49226   48900   48975   49050   49125   48534   47609   46684   45759
   45175   44763   44350   43938   43717   43592   43467   43342   43300   43300
   43300   43300   42751   41926   41101   40276   39734   39334   38934   38534
   38050   37525   37000   36475   35484   34259   33034   31809   31630   31976
   32322   32668   32753   32707   32661   32615   32150   31475   30800   30125
   29883   29858   29833   29808   29467   28967   28467   27967   27867   27967
   28067   28167   27900   27450   27000   26550   26150   25775   25400   25025
   24600   24150   23700   23250   22950   22725   22500   22275   21984   21659
   21334   21009   21283   21858   22433   23008   23500   23950   24400   24850
   25017   25042   25067   25092   25133   25183   25233   25283   25516   25841
   26166   26491   26866   27266   27666   28066   28217   28242   28267   28292
   28283   28258   28233   28208   28033   27783   27533   27283   26850   26325
   25800   25275   24584   23809   23034   22259   20934   19334   17734   16134
   15583   15558   15533   15508   15567   15667   15767   15867   16300   16900
   17500   18100   18167   17967   17767   17567   17284   16959   16634   16309
   16117   15992   15867   15742   15717   15742   15767   15792   15967   16217
   16467   16717   17150   17675   18200   18725   19166   19566   19966   20366
   20700   21000   21300   21600   21167   20367   19567   18767   18367   18167
   17967   17767   18016   18491   18966   19441   19717   19892   20067   20242
   20333   20383   20433   20483   21049   21874   22699   23524   24216   24841
   25466   26091   26350   26425   26500   26575   26866   27266   27666   28066
   28150   28075   28000   27925   27700   27400   27100   26800   26434   26034
   25634   25234   24684   24059   23434   22809   22300   21850   21400   20950
   21100   21550   22000   22450   22650   22725   22801   22876   25532   29481
   33431   37381   39849   41574   43299   45024   46033   46683   47333   47983
   47900   47450   47000   46550   46100   45650   45200   44750   44100   43350
   42600   41850   40867   39767   38667   37567   36567   35617   34667   33717
   32817   31942   31067   30192   29584   29109   28634   28159   28000   28000
   28000   28000   27767   27417   27067   26717   25817   24642   23467   22292
   21251   20276   19301   18326   17684   17209   16734   16259   16200   16350
   16500   16650   16767   16867   16967   17067   17100   17100   17100   17100
   17100   17100   17100   17100   17133   17183   17233   17283   17283   17258
   17233   17208   17350   17575   17800   18025   18466   19017   19567   20117
   21600   23549   25499   27449   28633   29433   30233   31034   32217   33592
   34967   36342   37467   38467   39466   40466   40867   40967   41067   41167
   41500   41950   42400   42850   42750   42375   42000   41625   40967   40167
   39367   38567   38233   38133   38033   37933   37750   37525   37300   37075
   36351   35376   34401   33426   33083   33058   33033   33008   32867   32667
   32467   32267   31934   31534   31134   30734   30167   29517   28867   28217
   27933   27833   27733   27633   27533   27433   27333   27233   27200   27200
   27200   27200   27050   26825   26600   26375   26283   26258   26233   26208
   26017   25742   25467   25192   24800   24350   23900   23450   23283   23258
   23233   23208   22984   22659   22334   22009   22383   23108   23833   24558
   25283   26008   26733   27458   27950   28325   28700   29075   29566   30116
   30666   31216   31783   32358   32933   33508   33833   34033   34233   34433
   34800   35250   35700   36150   36084   35759   35434   35109   35000   35000
   35000   35000   34800   34500   34200   33900   34100   34550   35000   35450
   35916   36391   36866   37341   37517   37542   37567   37592   37550   37475
   37400   37325   37317   37342   37367   37392   37350   37275   37200   37125
   37100   37100   37100   37100   36700   36100   35500   34900   34833   35033
   35233   35433   35716   36041   36366   36691   36584   36259   35934   35609
   35716   36041   36366   36691   37383   38258   39133   40008   40616   41091
   41566   42041   41934   41534   41134   40734   39518   37893   36268   34643
   34300   34600   34900   35200   34984   34509   34034   33559   33167   32817
   32467   32117   31883   31708   31533   31358   31167   30967   30767   30567
   30267   29917   29567   29217   28484   27559   26634   25709   24751   23776
   22801   21826   20168   18168   16168   14168   13617   13792   13967   14142
   14650   15325   16000   16675   17499   18399   19299   20199   21083   21958
   22833   23708   24749   25874   26999   28124   28383   28208   28033   27858
   27817   27842   27867   27892   28133   28483   28833   29183   29733   30383
   31033   31683   32050   32275   32500   32725   32317   31592   30867   30142
   29650   29275   28900   28525   27717   26692   25667   24642   23501   22301
   21101   19901   18651   17376   16101   14826   14167   13817   13467   13117
   13067   13167   13267   13367   13733   14233   14733   15233   15417   15442
   15467   15492   15716   16041   16366   16691   17116   17591   18066   18541
   19050   19575   20100   20625   20933   21133   21333   21533   21567   21517
DSS File=MISS.DSS
DSS Path=/MISSISSIPPI/DAM5A/FLOW/01JAN1998/6HOUR/COMPUTED MVP-WC/
Use DSS=False
CWMS InputPosition= 0 
Use Fixed Start Time=False
Fixed Start Date/Time=,
Is Critical Boundary=False
Critical Boundary Flow=
Boundary Location=MISSISSIPPI     ,REACH # 11      ,714.35  ,        ,                ,                ,                
Navigation Dam=6,1,1000,0.01,0.5,0.5, 2 ,30
Navigation Dam SFT= 11 
       0    5000   10000   15000   20000   25000   30000   35000   40000   45000
   50000
   645.7  645.67  645.59  645.45  645.23  644.95  644.56  644.03  643.29  642.24
  640.76
   645.3  645.27  645.19  645.01  644.77  644.45  643.99  643.37  642.41  640.86
  640.76
Navigation Dam Flow Monitor RRR=MISSISSIPPI     ,REACH # 11      ,750.1   
Navigation Dam Hinge Point RRR=MISSISSIPPI     ,REACH # 11      ,728.28  
Navigation Dam CP Hinge Point=646.1,645.9,645.65,645.55,645.5,645.45,645.35,645.1,644.9,50000,1.07,1.03,0.93,0.97,3000
Navigation Dam CP Min Pool=645.1,644.9,644.65,644.55,644.5,644.45,644.35,644.1,643.9,30000,1.07,1.03,0.93,0.97,1000
Navigation Dam CP Max Pool=,,,,,,,,,,,,,,
Boundary Location=MISSISSIPPI     ,REACH # 11      ,707.23  ,        ,                ,                ,                
Interval=1HOUR
Rating Curve= 8 
     638       0   638.4   20000   639.4 50434.8   640.2 79565.2   641.8114347.8
   643.6153478.3   644.8178260.9   649.3284782.6
DSS Path=
Use DSS=False
CWMS InputPosition= 0 
Use Fixed Start Time=False
Fixed Start Date/Time=,
Is Critical Boundary=False
Critical Boundary Flow=0
Observed DSS Loc=MISSISSIPPI     ,REACH # 11      ,725.8   
Observed DSS Filename=MISS.DSS
Observed DSS Pathname=/MISSISSIPPI/WNAM5/ELEV/01JAN1992/6HOUR/NCS-F1/
Observed DSS Dn Dist=0

