Geom Title=L&D 6
Program Version=5.00
Viewing Rectangle= 612510.269906856 , 705468.571346953 , 845583.05365887 , 683576.489510426 

River Reach=MISSISSIPPI     ,REACH # 11      
Reach XY= 2 
        613507.5  842927.3917691         703133.  687691.4722559
Rch Text X Y=624222.7495367,744661.9061022
Reverse River Text= 0 

Type RM Length L Ch R = 1 ,750.1   ,2640,2640,2640
BEGIN DESCRIPTION:
750.1

END DESCRIPTION:
Node Last Edited Time=Jul/01/2002 11:34:52
#Sta/Elev= 41 
       0  665.71      45  659.71    2080  659.31    3110  659.51    4115  660.51
    4160  654.91    4210  656.01    4310  657.51    4360  660.51    4375  664.01
    4415  662.01    4455  662.01    4475  659.01    4590  669.01    4670  669.01
    4705  668.41    4715  666.41    4740  665.61    4760  668.51    4790  666.01
    4800  659.71    4855  655.51    4895  654.21    4945  651.81    5045  649.31
    5095  649.31    5200  647.41    5255  644.61    5340  641.91    5415  637.71
    5455  636.71    5505  634.01    5555  633.11    5655  632.21    5705  630.51
    5760  634.21    5815  660.31    5835  665.01    5880  664.31    5930  664.31
    5970  665.81
#Mann= 3 , 0 , 0 
       0    .075       0    4800    .022       0    5815     .07       0
Bank Sta=4800,5815
XS Rating Curve= 0 ,0
XS HTab Starting El and Incr=631.51,1, 38 
XS HTab Horizontal Distribution= 5 , 5 , 5 
Exp/Cntr=0.3,0.1

Type RM Length L Ch R = 1 ,749.6   ,7550,7550,7550
BEGIN DESCRIPTION:
749.6

END DESCRIPTION:
Node Last Edited Time=Jul/01/2002 11:34:52
#Sta/Elev= 48 
       0  660.41     100  659.51     500  659.71    3979  659.51    4000  663.51
    4124  666.81    4159  665.41    4169  664.81    4179  660.01    4459  649.21
    4489  649.71    4539  649.01    4589  648.41    4669  645.01    4779  643.51
    4829  641.31    4879  642.01    5059  637.01    5099  648.41    5139  650.01
    5189  655.71    5289  655.31    5309  652.51    5344  654.51    5446  652.51
    5614  654.51    5659  652.61    5664  651.01    5694  650.51    5719  653.71
    5759  652.71    5779  650.01    5829  650.51    5894  663.51    6014  661.31
    6077  661.71    6377  661.71    6409  664.81    6494  657.51    6529  661.01
    6789  664.71    6894  653.01    7044  646.51    7072  648.01    7144  647.71
    7194  651.01    7269  652.31    7294  659.51
#Mann= 4 ,-1 , 0 
       0    .075       0    4179    .022       0    5894    .075       0
    6789    .022       0
Bank Sta=4179,5894
XS Rating Curve= 0 ,0
XS HTab Starting El and Incr=638.01,1, 29 
XS HTab Horizontal Distribution= 5 , 5 , 5 
Exp/Cntr=0.3,0.1

Type RM Length L Ch R = 1 ,748.17  ,100,100,100
BEGIN DESCRIPTION:
748.17

END DESCRIPTION:
Node Last Edited Time=Jul/01/2002 11:34:52
#Sta/Elev= 65 
       0  660.01      75  658.51     115  660.51     230  659.01     260  659.01
     280  662.01     360  661.51     390  656.51     445  660.51     555  660.51
     595  662.31     625  660.01     675  658.51     725  651.51     875  656.51
     920  654.01     985  662.01    1105  656.51    1130  658.51    1165  658.51
    1180  659.51    1225  659.51    1315  655.71    1360  654.81    1510  655.81
    1810  654.51    2160  654.01    2210  659.51    2215  662.51    2245  663.51
    2545  664.21    2590  663.61    2695  644.51    2735  643.61    2780  644.61
    2825  643.51    2875  643.71    2920  644.61    2970  645.31    3110  648.51
    3165  649.01    3215  651.41    3305  650.61    3355  653.81    3385  659.81
    3403  662.71    3520  663.61    3575  664.01    3610  664.21    3690  663.81
    3950  662.81    4015  650.51    4065  650.01    4115  656.51    4215  657.01
    4235  660.01    4345  660.01    4405  654.81    4555  655.01    4655  649.51
    4705  651.81    5055  656.81    5105  656.51    5155  659.51   10900  659.51
#Mann= 4 ,-1 , 0 
       0    .055       0    2590    .022       0    3385    .055       0
    4345    .022       0
Bank Sta=2590,3385
XS Rating Curve= 0 ,0
XS HTab Starting El and Incr=644.51,0.99, 20 
XS HTab Horizontal Distribution= 5 , 5 , 5 
Exp/Cntr=0.3,0.1

Type RM Length L Ch R = 1 ,748.15  ,1584,1584,1584
BEGIN DESCRIPTION:
748.15

END DESCRIPTION:
Node Last Edited Time=Jul/01/2002 11:34:52
#Sta/Elev= 65 
       0  660.01      75  658.51     115  660.51     230  659.01     260  659.01
     280  662.01     360  661.51     390  656.51     445  660.51     555  660.51
     595  662.31     625  660.01     675  658.51     725  651.51     875  656.51
     920  654.01     985  662.01    1105  656.51    1130  658.51    1165  658.51
    1180  659.51    1225  659.51    1315  655.71    1360  654.81    1510  655.81
    1810  654.51    2160  654.01    2210  659.51    2215  662.51    2245  663.51
    2545  664.21    2590  663.61    2695  644.51    2735  643.61    2780  644.61
    2825  643.51    2875  643.71    2920  644.61    2970  645.31    3110  648.51
    3165  649.01    3215  651.41    3305  650.61    3355  653.81    3385  659.81
    3400  667.51    3460  672.41    3550  691.41    3700  686.01    3755  661.91
    3950  662.81    4015  650.51    4065  650.01    4115  656.51    4215  657.01
    4235  660.01    4345  660.01    4405  654.81    4555  655.01    4655  649.51
    4705  651.81    5055  656.81    5105  656.51    5155  659.51   10900  659.51
#Mann= 4 ,-1 , 0 
       0    .055       0    2590    .022       0    3385    .055       0
    4345    .022       0
Bank Sta=2590,3385
XS Rating Curve= 0 ,0
XS HTab Starting El and Incr=644.51,1, 47 
XS HTab Horizontal Distribution= 5 , 5 , 5 
Exp/Cntr=0.3,0.1

Type RM Length L Ch R = 1 ,747.85  ,100,100,100
BEGIN DESCRIPTION:
747.85

END DESCRIPTION:
Node Last Edited Time=Jul/01/2002 11:34:52
#Sta/Elev= 65 
       0  660.01      75  658.51     115  660.51     230  659.01     260  659.01
     280  662.01     360  661.51     390  656.51     445  660.51     555  660.51
     595  662.31     625  660.01     675  658.51     725  651.51     875  656.51
     920  654.01     985  662.01    1105  656.51    1130  658.51    1165  658.51
    1180  659.51    1225  659.51    1315  655.71    1360  654.81    1510  655.81
    1810  654.51    2160  654.01    2210  659.51    2215  662.51    2245  663.51
    2545  664.21    2590  663.61    2695  644.51    2735  643.61    2780  644.61
    2825  643.51    2875  643.71    2920  644.61    2970  645.31    3110  648.51
    3165  649.01    3215  651.41    3305  650.61    3355  653.81    3385  659.81
    3400  667.51    3460  672.41    3550  691.41    3700  686.01    3755  661.91
    3950  662.81    4015  650.51    4065  650.01    4115  656.51    4215  657.01
    4235  660.01    4345  660.01    4405  654.81    4555  655.01    4655  649.51
    4705  651.81    5055  656.81    5105  656.51    5155  659.51   10900  659.51
#Mann= 4 ,-1 , 0 
       0    .055       0    2590    .022       0    3385    .055       0
    4345    .022       0
Bank Sta=2590,3385
XS Rating Curve= 0 ,0
XS HTab Starting El and Incr=644.51,1, 47 
XS HTab Horizontal Distribution= 5 , 5 , 5 
Exp/Cntr=0.3,0.1

Type RM Length L Ch R = 1 ,747.83  ,1214,1214,1214
BEGIN DESCRIPTION:
747.83

END DESCRIPTION:
Node Last Edited Time=Jul/01/2002 11:34:52
#Sta/Elev= 65 
       0  660.01      75  658.51     115  660.51     230  659.01     260  659.01
     280  662.01     360  661.51     390  656.51     445  660.51     555  660.51
     595  662.31     625  660.01     675  658.51     725  651.51     875  656.51
     920  654.01     985  662.01    1105  656.51    1130  658.51    1165  658.51
    1180  659.51    1225  659.51    1315  655.71    1360  654.81    1510  655.81
    1810  654.51    2160  654.01    2210  659.51    2215  662.51    2245  663.51
    2545  664.21    2590  663.61    2695  644.51    2735  643.61    2780  644.61
    2825  643.51    2875  643.71    2920  644.61    2970  645.31    3110  648.51
    3165  649.01    3215  651.41    3305  650.61    3355  653.81    3385  659.81
    3403  662.71    3520  663.61    3575  664.01    3610  664.21    3690  663.81
    3950  662.81    4015  650.51    4065  650.01    4115  656.51    4215  657.01
    4235  660.01    4345  660.01    4405  654.81    4555  655.01    4655  649.51
    4705  651.81    5055  656.81    5105  656.51    5155  659.51   10900  659.51
#Mann= 4 ,-1 , 0 
       0    .055       0    2590    .022       0    3385    .055       0
    4345    .022       0
Bank Sta=2590,3385
XS Rating Curve= 0 ,0
XS HTab Starting El and Incr=644.51,0.99, 20 
XS HTab Horizontal Distribution= 5 , 5 , 5 
Exp/Cntr=0.3,0.1

Type RM Length L Ch R = 1 ,747.6   ,4224,4224,4224
BEGIN DESCRIPTION:
747.6

END DESCRIPTION:
Node Last Edited Time=Jul/01/2002 11:34:52
#Sta/Elev= 80 
       0  660.01      75  658.51     115  660.51     230  659.01     260  659.01
     280  662.01     360  661.51     390  656.51     445  660.51     555  660.51
     595  662.31     625  660.01     675  658.51     725  651.51     875  656.51
     920  654.01     985  662.01    1105  656.51    1130  658.51    1165  658.51
    1180  659.51    1225  659.51    1315  655.71    1360  654.81    1510  655.81
    1810  654.51    1860  654.01    1910  659.51    1955  662.51    1985  663.51
    2000  659.81    2010  658.51    2050  658.71    2070  659.61    2075  662.31
    2220  659.91    2280  656.01    2300  656.01    2305  659.51    2310  661.51
    2355  660.71    2490  663.01    2495  659.51    2530  656.81    2900  656.11
    3290  640.11    3460  640.91    3490  642.01    3520  640.31    3560  639.81
    3660  636.31    3690  640.71    3760  644.31    3790  644.71    3830  642.91
    3860  644.21    3930  655.71    3960  656.21    4000  659.81    4010  663.01
    4080  662.01    4160  662.81    4255  666.11    4300  666.11    4340  669.71
    4390  670.01    4440  668.31    4475  659.51    4585  641.81    4745  647.81
    4795  646.21    4845  646.11    4995  648.21    5075  645.91    5125  645.91
    5225  649.51    5275  653.81    5465  654.21    5475  659.51   10200  659.51
#Mann= 4 ,-1 , 0 
       0    .055       0    2590    .022       0    3385    .055       0
    4345    .022       0
Bank Sta=2495,4000
XS Rating Curve= 0 ,0
XS HTab Starting El and Incr=637.31,1, 33 
XS HTab Horizontal Distribution= 5 , 5 , 5 
Exp/Cntr=0.3,0.1

Type RM Length L Ch R = 1 ,746.8   ,1584,1584,1584
BEGIN DESCRIPTION:
746.8

END DESCRIPTION:
Node Last Edited Time=Jul/01/2002 11:34:52
#Sta/Elev= 80 
       0  660.01      75  658.51     115  660.51     230  659.01     260  659.01
     280  662.01     360  661.51     390  656.51     445  660.51     555  660.51
     595  662.31     625  660.01     675  658.51     725  651.51     875  656.51
     920  654.01     985  662.01    1105  656.51    1130  658.51    1165  658.51
    1180  659.51    1225  659.51    1315  655.71    1360  654.81    1510  655.81
    1810  654.51    1860  654.01    1910  659.51    1955  662.51    1985  663.51
    2000  659.81    2010  658.51    2050  658.71    2070  659.61    2075  662.31
    2220  659.91    2280  656.01    2300  656.01    2305  659.51    2310  661.51
    2355  660.71    2490  663.01    2495  659.51    2530  656.81    2900  656.11
    3290  640.11    3460  640.91    3490  642.01    3520  640.31    3560  639.81
    3660  636.31    3690  640.71    3760  644.31    3790  644.71    3830  642.91
    3860  644.21    3930  655.71    3960  656.21    4000  659.81    4010  663.01
    4080  662.01    4160  662.81    4255  666.11    4300  666.11    4340  669.71
    4390  670.01    4440  668.31    4475  659.51    4585  641.81    4745  647.81
    4795  646.21    4845  646.11    4995  648.21    5075  645.91    5125  645.91
    5225  649.51    5275  653.81    5465  654.21    5475  659.51   10200  659.51
#Mann= 4 ,-1 , 0 
       0    .055       0    2590    .022       0    3385    .055       0
    4345    .022       0
Bank Sta=2495,4000
XS Rating Curve= 0 ,0
XS HTab Starting El and Incr=637.31,1, 33 
XS HTab Horizontal Distribution= 5 , 5 , 5 
Exp/Cntr=0.3,0.1

Type RM Length L Ch R = 1 ,746.5   ,3062,3062,3062
BEGIN DESCRIPTION:
746.5

END DESCRIPTION:
Node Last Edited Time=Jul/01/2002 11:34:52
#Sta/Elev= 80 
       0  660.01      75  658.51     115  660.51     230  659.01     260  659.01
     280  662.01     360  661.51     390  656.51     445  660.51     555  660.51
     595  662.31     625  660.01     675  658.51     725  651.51     875  656.51
     920  654.01     985  662.01    1105  656.51    1130  658.51    1165  658.51
    1180  659.51    1225  659.51    1315  655.71    1360  654.81    1510  655.81
    1810  654.51    1860  654.01    1910  659.51    1955  662.51    1985  663.51
    2000  659.81    2010  658.51    2050  658.71    2070  659.61    2075  662.31
    2220  659.91    2280  656.01    2300  656.01    2305  659.51    2310  661.51
    2355  660.71    2490  663.01    2495  659.51    2530  656.81    2900  656.11
    3290  640.11    3460  640.91    3490  642.01    3520  640.31    3560  639.81
    3660  636.31    3690  640.71    3760  644.31    3790  644.71    3830  642.91
    3860  644.21    3930  655.71    3960  656.21    4000  659.81    4010  663.01
    4080  662.01    4160  662.81    4255  666.11    4300  666.11    4340  669.71
    4390  670.01    4440  668.31    4475  659.51    4585  641.81    4745  647.81
    4795  646.21    4845  646.11    4995  648.21    5075  645.91    5125  645.91
    5225  649.51    5275  653.81    5465  654.21    5475  659.51   10200  659.51
#Mann= 4 ,-1 , 0 
       0    .055       0    2590    .022       0    3385    .055       0
    4345    .022       0
Bank Sta=2495,4000
XS Rating Curve= 0 ,0
XS HTab Starting El and Incr=637.31,1, 33 
XS HTab Horizontal Distribution= 5 , 5 , 5 
Exp/Cntr=0.3,0.1

Type RM Length L Ch R = 1 ,745.92  ,100,100,100
BEGIN DESCRIPTION:
745.92

END DESCRIPTION:
Node Last Edited Time=Jul/01/2002 11:34:52
#Sta/Elev= 85 
       0  660.01      75  658.51     115  660.51     230  659.01     260  659.01
     280  662.01     360  661.51     390  656.51     445  660.51     555  660.51
     595  662.31     625  660.01     675  658.51     725  651.51     875  656.51
     920  654.01     985  662.01    1105  656.51    1130  658.51    1165  658.51
    1180  659.51    1225  659.51    1315  655.71    1360  654.81    1510  655.81
    1810  654.51    1860  654.01    1910  659.51    1955  662.51    1985  663.51
    2000  659.21    2100  664.41    2144  664.21    2198  664.01    2264  664.21
    2317  664.01    2379  663.61    2449  659.21    2464  657.21    2514  645.21
    2714  646.61    2764  646.21    2814  645.31    2864  645.31    2914  645.51
    2964  645.61    3014  646.51    3064  646.21    3114  644.61    3164  644.51
    3214  641.61    3264  645.21    3314  652.71    3364  653.31    3414  655.11
    3444  659.21    3488  663.41    3500  664.01    3557  664.21    3591  663.81
    3852  663.61    3911  663.81    3957  663.21    4012  659.21    4017  658.31
    4067  657.81    4117  657.51    4167  658.31    4217  657.31    4267  655.61
    4317  654.81    4367  654.71    4387  659.21    4417  661.41    4457  659.21
    4467  658.41    4517  657.01    4567  657.81    4617  658.11    4667  658.71
    4717  658.71    4767  658.21    4817  657.71    4861  659.21   10800  659.51
#Mann= 4 ,-1 , 0 
       0    .055       0    2590    .022       0    3385    .055       0
    4345    .022       0
Bank Sta=2449,3444
XS Rating Curve= 0 ,0
XS HTab Starting El and Incr=642.61,1, 22 
XS HTab Horizontal Distribution= 5 , 5 , 5 
Exp/Cntr=0.3,0.1

Type RM Length L Ch R = 1 ,745.9   ,1060,1060,1060
BEGIN DESCRIPTION:
745.9

END DESCRIPTION:
Node Last Edited Time=Jul/01/2002 11:34:52
#Sta/Elev= 85 
       0  660.01      75  658.51     115  660.51     230  659.01     260  659.01
     280  662.01     360  661.51     390  656.51     445  660.51     555  660.51
     595  662.31     625  660.01     675  658.51     725  651.51     875  656.51
     920  654.01     985  662.01    1105  656.51    1130  658.51    1165  658.51
    1180  659.51    1225  659.51    1315  655.71    1360  654.81    1510  655.81
    1810  654.51    1860  654.01    1910  659.51    1955  662.51    1985  663.51
    2000  659.21    2100  664.41    2144  664.21    2198  664.01    2264  664.21
    2317  664.01    2379  663.61    2449  659.21    2464  657.21    2514  645.21
    2714  646.61    2764  646.21    2814  645.31    2864  645.31    2914  645.51
    2964  645.61    3014  646.51    3064  646.21    3114  644.61    3164  644.51
    3214  641.61    3264  645.21    3314  652.71    3364  653.31    3414  655.11
    3444  659.21    3450  659.71    3470  667.81    3524  672.51    3549  685.81
    3845  686.51    3850  687.31    3895  666.61    3935  664.61    4020  660.31
    4067  657.81    4117  657.51    4167  658.31    4217  657.31    4267  655.61
    4317  654.81    4367  654.71    4387  659.21    4417  661.41    4457  659.21
    4467  658.41    4517  657.01    4567  657.81    4617  658.11    4667  658.71
    4717  658.71    4767  658.21    4817  657.71    4861  659.21   10800  659.51
#Mann= 4 ,-1 , 0 
       0    .055       0    2590    .022       0    3385    .055       0
    4345    .022       0
Bank Sta=2449,3444
XS Rating Curve= 0 ,0
XS HTab Starting El and Incr=642.61,1, 45 
XS HTab Horizontal Distribution= 5 , 5 , 5 
Exp/Cntr=0.3,0.1

Type RM Length L Ch R = 1 ,745.7   ,100,100,100
BEGIN DESCRIPTION:
745.7

END DESCRIPTION:
Node Last Edited Time=Jul/01/2002 11:34:52
#Sta/Elev= 85 
       0  660.01      75  658.51     115  660.51     230  659.01     260  659.01
     280  662.01     360  661.51     390  656.51     445  660.51     555  660.51
     595  662.31     625  660.01     675  658.51     725  651.51     875  656.51
     920  654.01     985  662.01    1105  656.51    1130  658.51    1165  658.51
    1180  659.51    1225  659.51    1315  655.71    1360  654.81    1510  655.81
    1810  654.51    1860  654.01    1910  659.51    1955  662.51    1985  663.51
    2000  659.21    2100  664.41    2144  664.21    2198  664.01    2264  664.21
    2317  664.01    2379  663.61    2449  659.21    2464  657.21    2514  645.21
    2714  646.61    2764  646.21    2814  645.31    2864  645.31    2914  645.51
    2964  645.61    3014  646.51    3064  646.21    3114  644.61    3164  644.51
    3214  641.61    3264  645.21    3314  652.71    3364  653.31    3414  655.11
    3444  659.21    3450  659.71    3470  667.81    3524  672.51    3549  685.81
    3845  686.51    3850  687.31    3895  666.61    3935  664.61    4020  660.31
    4067  657.81    4117  657.51    4167  658.31    4217  657.31    4267  655.61
    4317  654.81    4367  654.71    4387  659.21    4417  661.41    4457  659.21
    4467  658.41    4517  657.01    4567  657.81    4617  658.11    4667  658.71
    4717  658.71    4767  658.21    4817  657.71    4861  659.21   10800  659.51
#Mann= 4 ,-1 , 0 
       0    .055       0    2590    .022       0    3385    .055       0
    4345    .022       0
Bank Sta=2449,3444
XS Rating Curve= 0 ,0
XS HTab Starting El and Incr=642.61,1, 45 
XS HTab Horizontal Distribution= 5 , 5 , 5 
Exp/Cntr=0.3,0.1

Type RM Length L Ch R = 1 ,745.68  ,5442,5442,5442
BEGIN DESCRIPTION:
745.68

END DESCRIPTION:
Node Last Edited Time=Jul/01/2002 11:34:52
#Sta/Elev= 85 
       0  660.01      75  658.51     115  660.51     230  659.01     260  659.01
     280  662.01     360  661.51     390  656.51     445  660.51     555  660.51
     595  662.31     625  660.01     675  658.51     725  651.51     875  656.51
     920  654.01     985  662.01    1105  656.51    1130  658.51    1165  658.51
    1180  659.51    1225  659.51    1315  655.71    1360  654.81    1510  655.81
    1810  654.51    1860  654.01    1910  659.51    1955  662.51    1985  663.51
    2000  659.21    2100  664.41    2144  664.21    2198  664.01    2264  664.21
    2317  664.01    2379  663.61    2449  659.21    2464  657.21    2514  645.21
    2714  646.61    2764  646.21    2814  645.31    2864  645.31    2914  645.51
    2964  645.61    3014  646.51    3064  646.21    3114  644.61    3164  644.51
    3214  641.61    3264  645.21    3314  652.71    3364  653.31    3414  655.11
    3444  659.21    3488  663.41    3500  664.01    3557  664.21    3591  663.81
    3852  663.61    3911  663.81    3957  663.21    4012  659.21    4017  658.31
    4067  657.81    4117  657.51    4167  658.31    4217  657.31    4267  655.61
    4317  654.81    4367  654.71    4387  659.21    4417  661.41    4457  659.21
    4467  658.41    4517  657.01    4567  657.81    4617  658.11    4667  658.71
    4717  658.71    4767  658.21    4817  657.71    4861  659.21   10800  659.51
#Mann= 4 ,-1 , 0 
       0    .055       0    2590    .022       0    3385    .055       0
    4345    .022       0
Bank Sta=2449,3444
XS Rating Curve= 0 ,0
XS HTab Starting El and Incr=642.61,1, 22 
XS HTab Horizontal Distribution= 5 , 5 , 5 
Exp/Cntr=0.3,0.1

Type RM Length L Ch R = 1 ,744.65  ,100,100,100
BEGIN DESCRIPTION:
744.65

END DESCRIPTION:
Node Last Edited Time=Jul/01/2002 11:34:52
#Sta/Elev= 42 
       0  663.51      10  659.21      60  653.91     210  653.81     310  652.31
     410  652.11     510  652.91     560  653.11     610  648.31     660  649.51
     710  652.71     810  652.91     910  652.31    1010  652.51    1110  651.31
    1160  652.81    1560  653.51    1860  650.21    2010  649.91    2110  653.91
    2510  653.91    2960  657.51    3110  658.51    3115  660.91    3185  662.31
    3225  660.11    6255  659.91    6305  655.51    6345  654.91    6435  650.61
    6495  646.71    6545  646.11    6595  646.91    6645  646.11    6745  645.11
    6795  643.91    6840  640.71    6880  641.01    6970  639.01    7015  647.61
    7055  659.61   16225  659.51
#Mann= 4 ,-1 , 0 
       0    .055       0    2590    .022       0    3385    .055       0
    4345    .022       0
Bank Sta=6255,7055
XS Rating Curve= 0 ,0
XS HTab Starting El and Incr=640.01,1, 24 
XS HTab Horizontal Distribution= 5 , 5 , 5 
Exp/Cntr=0.3,0.1

Type RM Length L Ch R = 1 ,744.63  ,1395,1395,1395
BEGIN DESCRIPTION:
744.63

END DESCRIPTION:
Node Last Edited Time=Jul/01/2002 11:34:52
#Sta/Elev= 47 
       0  663.51      10  659.21      60  653.91     210  653.81     310  652.31
     410  652.11     510  652.91     560  653.11     610  648.31     660  649.51
     710  652.71     810  652.91     910  652.31    1010  652.51    1110  651.31
    1160  652.81    1560  653.51    1860  650.21    2010  649.91    2110  653.91
    2510  653.91    2960  657.51    3110  658.51    3115  660.91    3185  662.31
    3225  660.11    5755  659.51    5775  667.81    5815  679.51    6145  684.51
    6185  665.11    6255  659.91    6305  655.51    6345  654.91    6435  650.61
    6495  646.71    6545  646.11    6595  646.91    6645  646.11    6745  645.11
    6795  643.91    6840  640.71    6880  641.01    6970  639.01    7015  647.61
    7055  659.61   16225  659.51
#Mann= 4 ,-1 , 0 
       0    .055       0    2590    .022       0    3385    .055       0
    4345    .022       0
Bank Sta=6255,7055
XS Rating Curve= 0 ,0
XS HTab Starting El and Incr=640.01,1, 44 
XS HTab Horizontal Distribution= 5 , 5 , 5 
Exp/Cntr=0.3,0.1

Type RM Length L Ch R = 1 ,744.37  ,100,100,100
BEGIN DESCRIPTION:
744.37

END DESCRIPTION:
Node Last Edited Time=Jul/01/2002 11:34:52
#Sta/Elev= 47 
       0  663.51      10  659.21      60  653.91     210  653.81     310  652.31
     410  652.11     510  652.91     560  653.11     610  648.31     660  649.51
     710  652.71     810  652.91     910  652.31    1010  652.51    1110  651.31
    1160  652.81    1560  653.51    1860  650.21    2010  649.91    2110  653.91
    2510  653.91    2960  657.51    3110  658.51    3115  660.91    3185  662.31
    3225  660.11    5755  659.51    5775  667.81    5815  679.51    6145  684.51
    6185  665.11    6255  659.91    6305  655.51    6345  654.91    6435  650.61
    6495  646.71    6545  646.11    6595  646.91    6645  646.11    6745  645.11
    6795  643.91    6840  640.71    6880  641.01    6970  639.01    7015  647.61
    7055  659.61   16225  659.51
#Mann= 4 ,-1 , 0 
       0    .055       0    2590    .022       0    3385    .055       0
    4345    .022       0
Bank Sta=6255,7055
XS Rating Curve= 0 ,0
XS HTab Starting El and Incr=640.01,1, 44 
XS HTab Horizontal Distribution= 5 , 5 , 5 
Exp/Cntr=0.3,0.1

Type RM Length L Ch R = 1 ,744.35  ,6600,6600,6600
BEGIN DESCRIPTION:
744.35

END DESCRIPTION:
Node Last Edited Time=Jul/01/2002 11:34:52
#Sta/Elev= 42 
       0  663.51      10  659.21      60  653.91     210  653.81     310  652.31
     410  652.11     510  652.91     560  653.11     610  648.31     660  649.51
     710  652.71     810  652.91     910  652.31    1010  652.51    1110  651.31
    1160  652.81    1560  653.51    1860  650.21    2010  649.91    2110  653.91
    2510  653.91    2960  657.51    3110  658.51    3115  660.91    3185  662.31
    3225  660.11    6255  659.91    6305  655.51    6345  654.91    6435  650.61
    6495  646.71    6545  646.11    6595  646.91    6645  646.11    6745  645.11
    6795  643.91    6840  640.71    6880  641.01    6970  639.01    7015  647.61
    7055  659.61   16225  659.51
#Mann= 3 , 0 , 0 
       0    .085       0    6255    .022       0    7055    .075       0
Bank Sta=6255,7055
XS Rating Curve= 0 ,0
XS HTab Starting El and Incr=640.01,1, 24 
XS HTab Horizontal Distribution= 5 , 5 , 5 
Exp/Cntr=0.3,0.1

Type RM Length L Ch R = 1 ,743.1   ,8976,8976,8976
BEGIN DESCRIPTION:
743.1

END DESCRIPTION:
Node Last Edited Time=Jul/01/2002 11:34:52
#Sta/Elev= 70 
       0  659.21      50  656.51    1600  657.01    1800  660.91    1950  655.51
    2200  653.31    2400  648.91    2450  654.51    2900  658.01    2950  655.81
    3050  655.81    3100  651.41    3150  650.41    3200  653.91    3350  654.31
    3750  656.51    4550  656.51    4600  656.41    4700  656.41    4750  653.11
    4850  653.31    4900  656.51    5350  654.41    5400  651.81    5600  654.71
    5900  653.41    6250  656.31    6400  655.91    6450  657.51    6700  656.21
    6790  659.21    6795  662.51    6830  664.11    6915  661.81    6940  659.31
    6970  644.01    7160  644.41    7200  643.71    7340  645.91    7470  649.31
    7570  649.61    7610  650.51    7660  653.41    7710  655.51    7725  659.11
    7745  661.31    7785  662.31    7855  660.91    7860  658.51    8010  657.51
    8460  653.91    8860  653.91    8960  649.91    9110  650.21    9410  653.51
    9810  652.81    9860  651.31    9960  652.51   10060  652.31   10160  652.91
   10260  652.71   10310  649.51   10360  648.31   10410  653.11   10460  652.91
   10560  652.11   10660  652.31   10760  653.81   10910  653.91   10960  659.21
#Mann= 3 , 0 , 0 
       0    .095       0    6940    .022       0    7725    .095       0
Bank Sta=6940,7725
XS Rating Curve= 0 ,0
XS HTab Starting El and Incr=644.71,0.97, 20 
XS HTab Horizontal Distribution= 5 , 5 , 5 
Exp/Cntr=0.3,0.1

Type RM Length L Ch R = 1 ,741.4   ,7392,7392,7392
BEGIN DESCRIPTION:
741.4

END DESCRIPTION:
Node Last Edited Time=Jul/01/2002 11:34:52
#Sta/Elev= 89 
       0  659.21      50  656.51    1600  657.01    1800  660.91    1950  655.51
    2200  653.31    2400  648.91    2450  654.51    2900  658.01    2950  655.81
    3050  655.81    3100  651.41    3150  650.41    3200  653.91    3350  654.31
    3750  656.51    4550  656.51    4600  656.41    4700  656.41    4750  653.11
    4850  653.31    4900  656.51    5350  654.41    5400  651.81    5600  654.71
    5900  653.41    6250  656.31    6400  655.91    6450  657.51    6700  656.21
    6790  659.21    6795  662.51    6830  664.11    6915  661.81    6940  659.31
    7000  655.91    7090  654.91    7190  653.61    7240  654.91    7490  653.61
    7570  654.31    7620  654.31    7700  651.71    7790  651.51    7870  649.71
    7950  649.51    8030  647.91    8110  646.11    8145  646.71    8180  645.51
    8260  647.11    8300  651.51    8350  646.01    8390  646.11    8480  652.11
    8550  653.31    8760  652.71    8940  653.31    9030  652.31    9150  652.71
    9190  650.51    9230  653.01    9260  651.71    9300  650.51    9340  646.71
    9380  644.61    9420  645.51    9460  648.01    9500  648.01    9540  647.11
    9580  647.71    9615  648.91    9700  651.01    9750  651.51    9800  650.51
    9840  649.31    9890  645.71    9930  645.21   10000  645.41   10100  644.81
   10200  644.41   10310  643.81   10490  645.21   10540  652.01   10590  648.41
   10650  650.81   10700  651.81   10750  651.01   10800  659.21
#Mann= 3 , 0 , 0 
       0    .125       0    7000    .022       0   10800    .125       0
Bank Sta=7000,10800
XS Rating Curve= 0 ,0
XS HTab Starting El and Incr=644.81,0.96, 20 
XS HTab Horizontal Distribution= 5 , 5 , 5 
Exp/Cntr=0.3,0.1

Type RM Length L Ch R = 1 ,740     ,8976,8976,8976
BEGIN DESCRIPTION:
740

END DESCRIPTION:
Node Last Edited Time=Jul/01/2002 11:34:52
#Sta/Elev= 44 
       0  659.11      25  657.31     115  654.91     195  654.91     330  653.01
     375  651.21     475  652.31     535  639.61     785  643.31     825  643.31
     875  641.81     955  637.51     995  636.11    1065  631.51    1105  630.71
    1145  630.21    1195  629.31    1285  628.41    1380  638.81    1415  641.11
    1475  644.31    1515  645.41    1565  646.11    1635  647.31    1680  647.41
    1785  647.21    1825  647.81    2065  648.01    2160  649.51    2255  650.01
    2315  649.71    2365  650.51    2460  651.41    2625  651.71    2825  653.71
    2975  656.91    3225  657.31    3275  654.61    3425  654.61    3475  653.71
    3575  653.71    3625  656.31    3875  657.01    3975  659.11
#Mann= 3 , 0 , 0 
       0    .125       0       0    .022       0    3975    .125       0
Bank Sta=0,3975
XS Rating Curve= 0 ,0
XS HTab Starting El and Incr=629.41,1, 30 
XS HTab Horizontal Distribution= 5 , 5 , 5 
Exp/Cntr=0.3,0.1

Type RM Length L Ch R = 1 ,738.3   ,1,1,1
BEGIN DESCRIPTION:
738.3

END DESCRIPTION:
Node Name=LD5HW
Node Last Edited Time=Jul/01/2002 11:34:52
#Sta/Elev= 29 
       0  647.01      75  646.21     165  646.71     215  646.71     265  644.91