Geom Title=GHC FHAD
Program Version=4.10
Viewing Rectangle= 3143679.446641 , 3168482.59112911 , 1209802.33631893 , 1198948.02133469 

Junct Name=NE_Conf         
Junct Desc=, 0 , 0 ,-1 ,0
Junct X Y & Text X Y=3154831,1205320.625,3154831,1205320.625
Up River,Reach=Northeast Trib  ,Northeast Trib  
Up River,Reach=Mainstem        ,Fox Run         
Dn River,Reach=Mainstem        ,Carpenter       
Junc L&A=108.84,
Junc L&A=96.03,

Junct Name=104_Conf        
Junct Desc=, 0 , 0 ,-1 ,0
Junct X Y & Text X Y=3159277.5,1202201,3159277.5,1202201
Up River,Reach=104th Ave Trib  ,104th Ave Trib  
Up River,Reach=Mainstem        ,Carpenter       
Dn River,Reach=Mainstem        ,Middle          
Junc L&A=183.07,
Junc L&A=143.86,

Junct Name=Riverdl_Conf    
Junct Desc=, 0 , 0 ,-1 ,0
Junct X Y & Text X Y=3159915,1201749.875,3159915,1201749.875
Up River,Reach=Riverdale Trib  ,Riverdale Trib  
Up River,Reach=Mainstem        ,Middle          
Dn River,Reach=Mainstem        ,Valente         
Junc L&A=257.2,
Junc L&A=282.72,

Junct Name=N_Conf          
Junct Desc=, 0 , 0 ,-1 ,0
Junct X Y & Text X Y=3153461,1204666.625,3153461,1204666.625
Up River,Reach=North Trib      ,North Trib      
Up River,Reach=Mainstem        ,Railroad        
Dn River,Reach=Mainstem        ,Fox Run         
Junc L&A=208.67,
Junc L&A=205.51,

Junct Name=S_Conf          
Junct Desc=, 0 , 0 ,-1 ,0
Junct X Y & Text X Y=3151011.5,1202781.5,3151011.5,1202781.5
Up River,Reach=South Trib      ,South Trib      
Up River,Reach=Mainstem        ,Thomas Park     
Dn River,Reach=Mainstem        ,Railroad        
Junc L&A=470,
Junc L&A=530.22,

Junct Name=Grant_Conf      
Junct Desc=, 0 , 0 ,-1 ,0
Junct X Y & Text X Y=3145964.5,1202715.625,3145964.5,1202715.625
Up River,Reach=Mainstem        ,Upper Upper     
Up River,Reach=Grant Overflow  ,Grant Overflow  
Dn River,Reach=Mainstem        ,Upper           
Junc L&A=96.82,
Junc L&A=94.32,

Junct Name=Marion_Conf     
Junct Desc=, 0 , 0 ,-1 ,0
Junct X Y & Text X Y=3149255.25,1202602.25,3149255.25,1202602.25
Up River,Reach=Mainstem        ,Upper           
Up River,Reach=Marion Overflow ,Marion Overflow 
Dn River,Reach=Mainstem        ,Thomas Park     
Junc L&A=34.95,
Junc L&A=31.99,

River Reach=Marion Overflow ,Marion Overflow 
Reach XY= 309 
3148539.363036631202590.041320983148541.409292391202589.24112573
3148543.455548141202588.440602393148545.501803891202587.64040715
3148547.54773155 1202586.8398838 3148549.59398731202586.03968856
3148551.640243051202585.239165233148553.686498811202584.43896997
3148556.065759141202584.421253473148558.444691391202584.40353698
3148560.82395172 1202584.38549243148563.203212051202584.36777589
3148565.582144311202584.350059393148567.961404641202584.33234289
3148570.34066497 1202584.31462643148572.71959722 1202584.2965818
3148575.098857551202584.278865313148577.478117881202584.26114881
3148579.857050141202584.243432313148582.236310471202584.22571582
 3148584.61557081202584.207671233148586.994503051202584.18995473
3148589.373763381202584.172238233148591.752695641202584.15452173
3148594.131955971202584.13647714 3148596.51121631202584.11876065
3148598.890148551202584.101044153148601.269408881202584.08332764
3148603.648669231202584.065611143148606.027601471202584.04756656
 3148608.40686181202584.029850073148610.786122141202584.01213355
3148613.165054381202583.994417063148615.544314731202583.97670056
3148617.923575061202583.958655983148620.302507311202583.94093947
3148622.681767641202583.92322297 3148624.99934831202584.06889197
3148627.317257061202584.214889063148629.634837721202584.36055806
3148631.952418391202584.506555143148634.270327141202584.65222414
3148636.587907811202584.798221233148638.905816561202584.94389023
3148641.223397231202585.089887313148643.54097788 1202585.2355563
3148645.85888664 1202585.3815534 3148648.17646731202585.52722239
3148650.547853631202585.631552893148652.91923997 1202585.7358834
 3148655.29062631202585.840213893148657.662012641202585.94454439
3148660.03339897 1202586.04887493148662.404785311202586.15320539
3148664.776499721202586.257207813148667.147886051202586.36153831
3148669.519272391202586.465868823148671.890658721202586.57019931
3148674.262045061202586.674529813148676.633431391202586.77886032
3148679.004817721202586.883190813148681.173448551202587.14762598
3148683.342079391202587.412389233148685.510710221202587.67682439
3148687.679341051202587.941259563148689.847643811202588.20569472
3148692.016274631202588.470457973148694.184905471202588.73489314
3148696.353536311202588.999328323148698.632075061202588.81855439
3148700.910941881202588.637780473148703.189480631202588.45700656
3148705.468019381202588.275904573148707.746886221202588.09513064
3148710.025424971202587.914356723148712.303963721202587.73358281
3148714.58283055 1202587.5528089 3148716.86136931202587.37203498
3148719.139908061202587.190932973148721.418774891202587.01015906
3148723.697313641202586.82938515 3148726.00111481202586.96291506
3148728.304587891202587.096444983148730.60838905 1202587.2299749
3148732.911862131202587.36350481 3148735.21566331202587.49703473
3148737.519464481202587.630564643148739.822937551202587.76442264
3148742.126738731202587.897952563148744.430539891202588.03148247
3148746.734012981202588.165012393148749.037814141202588.29854231
3148751.341287231202588.432072223148753.645088391202588.56560214
3148755.91542505 1202589.03312093148758.185761721202589.50031155
3148760.456098391202589.967830323148762.726435051202590.43502098
3148764.996771721202590.902539733148767.267108381202591.37005848
3148769.537116971202591.837249143148771.807453631202592.30476789
3148774.077790311202592.772286643148776.348126981202593.23947731
3148778.618463641202593.706996053148780.888800311202594.17418672
3148783.159136971202594.641705483148785.039054471202595.53966956
3148786.918971971202596.437961733148788.798561391202597.33592582
3148790.678478881202598.234217973148792.558396381202599.13218206
3148794.994087061202599.191893223148797.429777731202599.25193247
3148799.865796481202599.311643653148802.30148713 1202599.3713548
 3148804.73717781202599.431394063148807.172868481202599.49110523
3148809.608559131202599.55081639 3148812.04424981202599.61085564
3148814.480268551202599.670566813148816.915959221202599.73027797
3148819.351649881202599.790317223148821.78734055 1202599.8500284
3148824.217781891202600.05245581 3148826.64855131202600.25521131
3148829.078992641202600.457638733148831.509762051202600.66039422
3148833.940203381202600.862821643148836.370644721202601.06524906
3148838.801414131202601.268004573148841.231855471202601.47043198
3148843.662624881202601.673187483148846.09306622 1202601.8756149
3148848.523507551202602.078042313148850.954276961202602.28079781
 3148853.38471831202602.483225233148855.815487731202602.68598072
3148858.245929051202602.888408143148860.683260141202603.18893248
3148863.120263141202603.489456823148865.557594221202603.78998114
3148867.994925311202604.090177393148870.431928311202604.39070173
3148872.869259391202604.691226073148875.306590471202604.99175039
3148877.743921551202605.292274733148880.180924551202605.59279907
3148882.618255631202605.892995313148885.055586731202606.19351964
3148887.492589731202606.494043983148889.929920811202606.79456832
3148892.269483061202607.33853048 3148894.60904531202607.88249265
3148896.948607551202608.426454813148899.287841721202608.97074506
3148901.627403971202609.514707223148903.966966231202610.05866939
3148906.306528461202610.602631553148908.646090721202611.14659372
3148910.98565297 1202611.69055593148913.325215221202612.23451807
3148915.664449391202612.778808313148918.004011631202613.32277048
3148920.343573881202613.866732643148922.683136141202614.41069481
3148925.125716551202614.535694553148927.568625051202614.66036622
3148930.011205461202614.785365983148932.454113981202614.91003764
3148934.89669439 1202615.03503743148937.339602891202615.16003715
 3148939.78218331202615.284708813148942.224763721202615.40970856
3148944.667672221202615.534380233148947.110252631202615.65937997
3148949.553161141202615.784051643148951.995741561202615.90905139
3148954.244752811202615.830311393148956.493764061202615.75124331
3148958.743103391202615.672503313148960.992114631202615.59343523
3148963.241125881202615.514695233148965.490137141202615.43562715
3148967.739148391202615.356887153148969.988159641202615.27781907
3148972.237498971202615.199079073148974.486510221202615.12001097
3148976.735521471202615.041270973148979.050477471202614.99304272
3148981.365105391202614.944814473148983.680061391202614.89658622
 3148985.99468931202614.848357983148988.309645311202614.80012973
3148990.624273231202614.751901483148992.939229221202614.70367323
3148995.253857141202614.655444983148997.568813131202614.60721673
3148999.912640471202614.563909723149002.256139731202614.52027464
3149004.599967051202614.476967653149006.943794381202614.43366064
3149009.287621721202614.390353653149011.631120961202614.34671856
 3149013.97494831202614.303411563149016.318775641202614.26010457
3149018.662274881202614.216469483149021.006102221202614.17316248
3149023.216727721202614.203346153149025.427353221202614.23320173
3149027.63797872 1202614.26338543149029.848604221202614.29324098
3149032.058901641202614.323424643149034.269527141202614.35328023
3149036.480152641202614.383463893149038.690778141202614.41331948
3149040.989329961202614.391337893149043.28788181 1202614.3696844
3149045.586433631202614.347702823149047.884985481202614.32604931
 3149050.18353731202614.304067733149052.482089131202614.28241423
3149054.780640971202614.26043265 3149057.07919281202614.23877914
3149059.377744641202614.216797563149061.676296471202614.19514406
 3149063.97484831202614.173162483149066.373465551202614.08162722
3149068.772082811202613.990420063149071.17070006 1202613.8988848
3149073.569317311202613.807677643149075.967606471202613.71614239
3149078.366223721202613.624935223149080.764840981202613.53339998
3149083.163458231202613.442192813149085.562075471202613.35065757
3149087.960692721202613.259450393149090.359309971202613.16791515
3149092.757927221202613.076707973149095.156544481202612.98517273
3149097.555161711202612.893965563149099.953450891202612.80243032
3149102.352068141202612.711223143149104.75068539 1202612.6196879
3149107.149302631202612.528480723149109.547919881202612.43694548
3149111.948505641202612.172838393149114.349091381202611.90905939
3149116.749677141202611.64495231 3149119.14993481202611.38084523
3149121.550520551202611.117066223149123.951106311202610.85295914
3149126.351692051202610.588852063149128.752277811202610.32474497
3149131.152863551202610.06096597 3149133.55344931202609.79685889
3149135.953706961202609.532751813149138.354292721202609.26897281
3149140.754878481202609.004865723149143.155464221202608.74075864
3149145.556049971202608.476979643149147.956635711202608.21287256
3149150.356893391202607.948765473149152.757479131202607.68465839
3149155.158064891202607.420879393149157.558650641202607.15677232
3149159.890995061202606.814253323149162.223667551202606.47140622
3149164.556011971202606.128887223149166.888356391202605.78604014
3149169.221028891202605.443521143149171.553373311202605.10067406
3149173.885717721202604.758155063149176.218390231202604.41530798
3149178.550734641202604.072788983149180.883079051202603.72994189
3149183.215751561202603.387422893149185.548095971202603.04457581
3149187.880440381202602.702056813149190.213112891202602.35920973
 3149192.54545731202602.016690733149194.703261391202601.96288507
3149196.861065481202601.909079393149199.018869551202601.85527372
3149201.177001711202601.80146806 3149203.3348058 1202601.7476624
3149205.492609891202601.693856733149207.650413981202601.64005107
3149209.808218051202601.586245393149212.070680721202601.52653423
3149214.333143381202601.466823063149216.595606061202601.40743998
3149218.85774064 1202601.3477288 3149221.12020331202601.28801765
3149223.382665981202601.228306473149225.646440971202601.27095731
3149227.909887881202601.313608143149230.173662891202601.35658707
 3149232.43710981202601.39923789 3149234.70088481202601.44188872
3149236.964331721202601.484539553149238.745824221202602.07640189
3149240.527316721202602.667936153149242.308809221202603.25979848
3149244.090301721202603.851332723149246.527960881202604.01603056
3149248.965948131202604.181056473149251.403607311202604.34575431
3149255.170068151202602.20271732
Rch Text X Y=3148717.9825941,1202593.6586038
Reverse River Text= 0 

Type RM Length L Ch R = 1 ,925607  ,33.51,33.48,33.47
XS GIS Cut Line=3
3148586.349163141202751.329384223148586.133940471202556.01415806
3148588.953488631202325.98213781
Node Last Edited Time=Nov/19/2015 13:00:36
#Sta/Elev= 100 
       0 5270.67    2.44 5270.56    7.32 5270.26    9.77 5270.08   14.65 5269.82
   17.09 5269.56   24.41 5268.97    29.3 5268.65   34.18 5268.27   36.62 5268.04
   46.39 5267.36   48.83 5267.13   53.71  5266.6   61.04 5266.04   65.92 5265.52
   73.24 5264.84   75.68 5264.64   80.57 5264.05   83.01 5263.88   87.89 5263.38
   90.33  5263.2   95.22 5262.79   100.1  5262.3  109.86 5261.36  112.31 5261.16
  114.75  5260.9  119.63 5260.32  126.95 5259.57  131.84  5259.2  134.28 5258.98
  144.05 5257.97  146.49 5257.78  148.93 5257.65  153.81 5257.16  156.25    5257
  158.69 5256.96  163.58 5256.77  166.02 5256.76  168.46 5256.83  173.34  5256.7
  175.78 5256.74  180.67 5256.77  183.11 5256.82  187.99 5256.82  192.87 5256.92
  200.21 5256.98   205.1 5257.11  207.55 5257.25  212.45 5257.31  214.89 5257.42
  222.24 5257.45  225.55 5257.56  227.13 5257.63  229.58 5257.66  232.03 5257.64
  239.37 5257.76  244.26 5257.74  249.16 5257.87  254.05 5257.91   256.5 5257.99
  263.84 5258.09  266.29 5258.09  268.74 5258.21  271.18 5258.18  276.08 5258.27
  285.87 5258.21  293.21 5258.29     303 5258.33  305.45 5258.41  310.34 5258.46
  312.79 5258.43  317.68 5258.45  322.58 5258.44  325.02 5258.54  327.47 5258.57
  329.92 5258.54  334.81  5258.7  337.26 5258.69  339.71 5258.63  342.16 5258.72
  347.05 5258.84  351.94 5258.87  354.39 5258.98  361.73  5259.1  366.63 5259.11
  369.08 5259.18  371.52 5259.18  373.97 5259.31  376.42 5259.38  378.87 5259.39
  381.31 5259.46  388.65 5259.81  393.55 5260.01     396 5260.06  398.44 5260.21
  405.79 5260.51  413.13 5260.73  418.02 5261.08  422.92 5261.33  425.36 5261.41
#Mann= 2 ,-1 , 0 
       0    .035       0  225.55    .055       0
#XS Ineff= 2 , 0 
       0                     260       0    5262
Permanent Ineff=
       F       T
Bank Sta=144.05,256.5
XS Rating Curve= 0 ,0
Exp/Cntr=0.3,0.1

Type RM Length L Ch R = 1 ,925573  ,77.76,78,77.79
XS GIS Cut Line=3
 3148620.07219281202767.430729973148619.408152131202483.22198081
3148621.541678061202326.45228122
Node Last Edited Time=Nov/19/2015 13:00:36
#Sta/Elev= 100 
       0 5271.66     4.9 5271.47    7.35 5271.47    9.08 5271.55     9.8 5271.59
    14.7 5271.58   17.15 5271.48    19.6  5271.2   22.05 5270.84   26.95 5270.02
    29.4  5269.9   31.85 5269.71    34.3 5269.41    39.2 5268.91   41.65  5268.6
   51.45  5267.6   56.35  5267.2    58.8 5266.96    63.7 5266.57    68.6 5266.23
   71.05    5266   75.95 5265.62    78.4 5265.37   80.85 5265.05   85.75  5264.6
    88.2 5264.29      98 5263.26   102.9 5262.94  105.35 5262.84   107.8 5262.63
   112.7 5262.05  115.15 5261.68   117.6 5261.46  120.05 5261.09  124.95 5260.54
  129.85 5260.08  134.75 5259.52   137.2 5259.37  147.01 5258.44  154.36 5257.85
  159.26 5257.36  164.16 5256.92  166.61 5256.82  171.51  5256.5  176.41 5256.36
  181.31 5256.13  186.21 5256.17  188.66 5256.12  193.56 5256.21  200.91 5256.26
  205.81 5256.36  208.26 5256.49  213.16 5256.51  220.51 5256.82  222.96 5256.98
  225.41    5257  230.31  5257.2  232.76 5257.24  235.21 5257.36   240.9 5257.77
  247.46  5258.1  249.91 5258.44  254.81 5258.53  257.26 5258.69  259.71 5258.55
  262.16 5258.54  264.61  5258.7  267.06 5258.74  269.51  5258.7  274.41 5258.75
  276.86 5258.72  281.76  5258.8  284.21 5258.73  289.11 5258.71  294.01 5258.73
  298.91 5258.59  301.36 5258.62  311.16 5258.65  323.41 5258.54  328.31 5258.52
     343 5258.28   352.8 5258.19   357.7 5258.21  360.15 5258.27  369.95 5258.77
   372.4 5258.84   377.3 5259.16   382.2 5259.14   387.1  5259.2  389.55 5259.27
  394.45 5259.28   396.9 5259.38   401.8 5259.83  409.15  5260.7  418.95 5261.81
  423.85 5262.46   431.2  5263.4  433.64 5263.61  438.54 5263.91  440.99 5264.03
#Mann= 3 ,-1 , 0 
       0    .055       0    9.08    .035       0   240.9    .055       0
#XS Ineff= 2 , 0 
                          306.69         5263.53
Permanent Ineff=
       F       F
#Block Obstruct= 1 ,-1 
     280     323    5270
Bank Sta=159.26,235.21
XS Rating Curve= 0 ,0
Exp/Cntr=0.3,0.1

Type RM Length L Ch R = 1 ,925495  ,99.34,100.4,99.41
XS GIS Cut Line=2
3148697.583192631202692.597874393148697.062524391202342.59824631
Node Last Edited Time=Nov/19/2015 13:00:36
#Sta/Elev= 100 
       0 5262.71    2.45 5262.31    7.34  5261.6    9.79 5261.27   14.69 5260.66
   17.13 5260.29   19.58 5259.86   24.48 5259.19   29.37  5258.6   31.82 5258.34
   34.27 5258.12   36.71 5257.96   39.16 5257.85   41.61 5257.66   44.06 5257.36
    46.5 5257.02    51.4 5256.47   56.29 5255.83   61.19 5255.41   66.08 5254.97
   70.98 5254.58   75.87 5254.15   78.32 5253.99   83.22 5253.86   88.11 5253.63
   93.01 5253.32   95.45 5253.25    97.9 5253.24   102.8 5253.12  105.24 5253.12
  112.59 5253.19  115.03 5253.27  119.93 5253.59  124.82 5253.96  129.72 5254.47
  132.17 5254.67  137.06    5255  144.41  5255.4   149.3 5255.76   154.2 5256.15
  156.64 5256.31  164.31 5256.91  168.88 5257.34  171.33 5257.46  173.78 5257.65
  176.22 5257.94  178.67  5258.2  181.12 5258.38  183.57 5258.38  188.46  5258.3
  193.36 5258.29   195.8 5258.35   200.7 5258.57  203.15 5258.61  205.59  5258.6
  210.49 5258.62  215.38 5258.55  220.28 5258.35  222.73 5258.37  225.18  5258.6
  227.62 5258.67  230.07 5258.64  232.52 5258.49  239.86 5258.56  242.31 5258.53
  244.76 5258.45   247.2 5258.46   252.1 5258.62  256.99 5258.51  259.44 5258.58
  261.89 5258.36  264.34 5258.24  266.78  5258.2  269.23 5257.91  271.68 5257.73
  274.13 5257.63  276.57 5257.59  279.02 5257.38  281.47 5257.08  283.92 5256.98
  288.81 5257.52  293.71 5257.76   298.6 5257.91  301.05 5257.96   303.5 5258.13
  305.94 5258.15  310.84 5258.12  313.29 5258.04  315.73    5258  318.18 5258.05
  320.63 5257.78  323.08 5257.87  327.97 5258.53  330.42 5258.75  332.87 5259.11
  335.32 5259.55  340.21 5260.58  342.66 5261.25  347.55 5262.08     350 5262.47
#Mann= 2 ,-1 , 0 
       0    .035       0  164.31    .055       0
#Block Obstruct= 1 ,-1 
     197     260    5262
Bank Sta=70.98,129.72
XS Rating Curve= 0 ,0
Exp/Cntr=0.3,0.1

Type RM Length L Ch R = 1 ,925395  ,171.86,172.22,171.79
XS GIS Cut Line=2
3148795.766395231202703.541750153148796.460947631202451.45859289
Node Last Edited Time=Nov/19/2015 13:00:36
#Sta/Elev= 100 
       0 5261.88    2.45 5261.45    4.89 5261.04    7.34 5260.61    9.79 5260.14
   12.24 5259.66   14.68 5259.14   17.13  5258.7   19.58 5258.29   22.03 5257.79
   24.47 5257.25   26.92 5256.75   29.37 5256.33   31.82 5255.92   34.26 5255.54
   36.71 5255.17   41.61 5254.55   44.05 5254.27    46.5    5254   48.95 5253.61
    51.4 5253.29   53.84 5253.04   56.29 5252.81   58.74 5252.49   61.19 5252.22
   63.63 5252.06   66.08 5251.81   68.53 5251.68   70.98 5251.49   73.42 5251.42
   75.87  5251.3   78.32 5251.21   80.76    5251   83.21 5250.87   85.66 5250.64
   88.11 5250.48   90.55 5250.34      93 5250.24   95.45 5250.15   96.18 5250.12
    97.9 5250.04  100.34 5249.98  102.79 5249.98  105.24    5250  107.69 5250.01
  110.13 5250.02  112.58 5250.07  115.03  5250.2  115.58 5250.19  117.48 5250.15
  119.92 5250.27  122.37  5250.4  124.82  5250.5  127.27 5250.61  129.71 5250.77
  132.16 5251.05  134.61 5251.28  137.06 5251.55   139.5 5251.94  141.95  5252.2
  146.85 5253.02  149.29 5253.36  151.74 5253.71  154.19 5254.02  156.63 5254.23
  159.08 5254.43  163.98 5254.89  166.42 5254.98  168.87  5255.1  171.32 5255.23
  173.77 5255.35  174.17 5255.36  176.21 5255.45  178.66 5255.62  181.11 5255.87
  183.56 5256.11     186 5256.14  188.45 5256.11   190.9 5256.14  193.35 5256.21
  195.79 5256.25  198.24 5256.35  200.69 5256.55  203.14 5256.79  205.58 5256.95
  208.03 5257.03  210.48 5257.05  212.93 5257.11  215.37 5257.21  217.82 5257.34
  220.27 5257.47  222.71 5257.65  225.16 5257.79  227.61 5257.82  230.06 5257.83
  234.95 5257.87  239.85 5257.89  242.29 5257.91  244.74 5257.92  252.08 5257.98
#Mann= 2 ,-1 , 0 
       0    .035       0  174.17    .055       0
Bank Sta=70.98,137.06
XS Rating Curve= 0 ,0
Exp/Cntr=0.3,0.1

Type RM Length L Ch R = 1 ,925223  ,187.96,186.92,185.64
XS GIS Cut Line=2
3148967.988819811202707.014184153148965.210938221202455.62525123
Node Last Edited Time=Nov/19/2015 13:00:36
#Sta/Elev= 100 
       0 5259.56    2.44 5259.15    4.88 5258.72    7.32 5258.15    9.76 5257.57
    12.2 5257.15   14.64 5256.64   17.09 5256.03   19.53 5255.41   21.97 5254.95
   24.41  5254.5   29.29 5253.54   31.73 5253.03   34.17 5252.58   36.61 5252.25
   39.05 5251.84   41.49 5251.43   43.93 5250.98   46.38 5250.56   48.82 5250.21
   51.26  5249.9    53.7 5249.62   56.14 5249.26   58.58 5248.91   61.02 5248.58
   63.46 5248.27    65.9 5248.01   68.34 5247.86   70.78 5247.76   73.22 5247.59
   75.67 5247.56   78.11 5247.59   80.55 5247.53   82.99  5247.5   83.51 5247.48
   85.43 5247.42   90.31 5247.22   92.75  5247.2   97.63 5247.34  100.07 5247.45
  100.88 5247.48  102.51 5247.56  104.96 5247.66   107.4 5247.74  109.84 5247.79
  112.28 5247.86  114.72 5247.99  117.16 5248.13   119.6 5248.22  122.04 5248.34
  124.48 5248.57  126.92 5248.85  129.36 5249.14   131.8 5249.44  134.25 5249.69
  136.69 5249.98  139.13 5250.25  141.57 5250.46  144.01 5250.59  146.45 5250.73
  148.89 5250.86  151.33 5250.97  156.21 5251.21  158.65 5251.37  161.09 5251.62
  163.53 5251.81  165.98 5251.95  168.42 5252.02  170.86 5252.12   173.3 5252.31
  175.74 5252.42  178.18 5252.57  178.85 5252.64  180.62 5252.83  183.06 5253.13
   185.5 5253.39  187.94  5253.6  190.38 5253.79  192.82 5254.02  195.27 5254.19
  197.71 5254.31  200.15 5254.47  202.59 5254.67  205.03 5254.77  207.47 5254.86
  209.91 5254.96  212.35 5255.04  214.79 5255.16  219.67 5255.54  222.11 5255.65
  224.56 5255.74     227 5255.71  229.44 5255.66  231.88 5255.63  234.32  5255.6
  236.76 5255.59   239.2 5255.58  241.64 5255.59  244.08 5255.59   251.4 5255.65
#Mann= 2 ,-1 , 0 
       0    .035       0  178.85    .055       0
Bank Sta=61.02,124.48
XS Rating Curve= 0 ,0
Exp/Cntr=0.3,0.1

Type RM Length L Ch R = 1 ,925036  ,74.75,75.77,76.91
XS GIS Cut Line=2
3149162.88442738 1202713.02106193149138.926141981202441.49306165
Node Last Edited Time=Nov/19/2015 13:00:36
#Sta/Elev= 100 
       0 5258.45    2.46 5257.98    7.37 5256.98    9.82 5256.41   12.28 5255.87
   14.73 5255.38   17.19 5254.84   19.65 5254.28    22.1 5253.79   29.47 5252.11
   31.92 5251.62   34.38 5251.14   36.84 5250.54   39.29 5250.06   41.75 5249.67
    44.2 5249.17   46.66 5248.61   49.11  5248.1   51.57  5247.6   54.03 5247.14
   56.48  5246.7   58.94  5246.3   61.39 5245.92   63.85 5245.56    66.3 5245.27
   68.76 5245.06   71.22 5244.95   73.67 5244.91   76.13 5244.83   78.58 5244.74
   81.04 5244.66   83.49  5244.6   85.95 5244.56   90.86 5244.52   93.32 5244.44
   95.77 5244.44   98.07  5244.4  103.14 5244.35   105.6 5244.41  108.05 5244.29
  110.51 5244.14  112.96 5244.21  117.87  5244.4  120.33 5244.58  122.78 5244.68
  125.24 5244.77   127.7 5244.93  132.61 5245.23  135.06 5245.48  137.52  5245.7
  142.43 5246.31  144.89  5246.6  147.34 5247.02   149.8 5247.38  152.25 5247.68
  154.71 5248.05  157.17 5248.43  159.62 5248.73  162.08    5249  164.53 5249.29
  166.99 5249.65  169.44 5249.94   171.9 5250.06  174.35 5250.12  176.81 5250.07
  179.27 5250.13  181.72 5250.38  184.18 5250.54  186.44 5250.64  186.63 5250.65
  189.09 5251.01  191.54  5251.2     194 5251.37  198.91 5251.73  203.82 5251.81
  206.28 5251.88  208.73    5252  211.19 5252.05  213.65 5252.13   216.1 5252.29
  218.56 5252.43  221.01 5252.52  225.92 5252.61  228.38 5252.64  230.84 5252.71
  235.75 5252.93   238.2 5253.01  240.66 5253.07  245.57 5253.14  248.03  5253.2
  250.48 5253.29  252.94 5253.25  255.39 5253.19  257.85 5253.15   260.3 5253.22
  262.76 5253.17  265.22 5253.15  267.67 5253.17  270.13 5253.12  272.58  5253.1
#Mann= 2 ,-1 , 0 
       0    .035       0  186.44    .055       0
Bank Sta=63.85,137.52
XS Rating Curve= 0 ,0
Exp/Cntr=0.3,0.1

Type RM Length L Ch R = 1 ,924960  ,5.66,26.88,6.19
XS GIS Cut Line=2
3149228.943678471202680.208463483149228.943678471202524.47944422
Node Last Edited Time=Oct/08/2015 14:19:35
#Sta/Elev= 70 
       0 5250.57    2.43 5250.12    4.87 5249.59     7.3 5248.94    9.73 5248.34
   12.17 5247.77    14.6 5247.21   17.03 5246.67   19.47 5246.17    21.9 5245.63
   24.33 5245.14   26.77 5244.76    29.2 5244.37   31.63    5244   34.07 5243.72
    36.5 5243.57   38.93 5243.49   41.12 5243.44   41.37 5243.43    43.8 5243.14
   46.23 5242.59   48.67 5241.94    51.1  5241.2   53.53 5240.36   55.97 5239.51
    58.4 5238.69   60.83 5237.77   63.26 5236.74    65.7 5235.65   68.13 5234.73
   70.56 5234.07      73 5233.47   74.72  5233.1   75.43 5232.95   77.86 5232.61
    80.3 5232.46   82.73 5232.56   84.71 5232.97   85.16 5233.06    87.6 5233.67
   90.03 5234.31   92.46 5235.02    94.9 5235.81   97.33 5236.59   99.63 5237.26
   99.76  5237.3   102.2 5238.05  104.63 5238.78  107.06 5239.54   109.5 5240.32
  111.93  5241.1  114.36    5242   116.8 5242.85  119.23 5243.63  121.66 5244.36
   124.1 5245.07  126.53 5245.73  128.96 5246.41   131.4 5247.08  133.83 5247.69
  136.26 5248.22   138.7 5248.68  141.13 5248.91  143.56 5249.19     146 5249.37
  148.43 5249.55  150.86 5249.72  151.81 5249.77   153.3 5249.85  155.73 5250.15
#Mann= 4 ,-1 , 0 
       0    .035       0   41.12    .045       0   99.63    .035       0
  151.81    .055       0
Bank Sta=63.26,97.33
XS Rating Curve= 0 ,0
Exp/Cntr=0.3,0.1

River Reach=North Trib      ,North Trib      
Reach XY= 1039 
3151459.286002561204998.191360313151461.700695891204998.23860431
3151464.11571731 1204998.28617643151466.53041063 1204998.3334204
3151468.945103971204998.38066439 3151471.35979731204998.42823647
3151473.774818721204998.475480483151476.189512061204998.52305256
3151478.604205381204998.570296563151481.018898731204998.61754055
3151483.433920131204998.665112643151485.848613471204998.71235664
3151488.127152221204997.800941143151490.406019051204996.88952564
3151492.684557811204995.978110153151494.963096561204995.06669465
3151497.241635311204994.154951073151499.520502141204993.24353556
3151501.799040881204992.332120063151504.077579631204991.42070456
3151505.880397561204989.858043643151507.683215471204988.29571082
3151509.48636147 1204986.73304993151511.289179381204985.17071706
3151513.091997311204983.608056143151514.89481522 1204982.0457233
3151516.697961231204980.483062393151518.500779141204978.92072956
3151520.303597051204977.358068653151522.106414971204975.79573581
3151523.909560961204974.233074893151525.712378891204972.67074206
 3151527.51519681204971.108081153151529.318014731204969.54542023
3151531.120832641204967.983087393151532.923978641204966.42042647
3151534.726796551204964.858093653151536.529614461204963.29543273
3151538.332432391204961.733099893151540.135578391204960.17043898
 3151541.93839631204958.608106143151543.741214221204957.04544523
3151545.544032141204955.483112393151547.347178131204953.92045148
3151549.149996061204952.358118643151550.952813971204950.79545772
3151552.758256551204949.198348063151554.564027221204947.60091031
3151556.369469811204946.003800653151558.174912391204944.40669097
3151559.980683061204942.809253233151561.786125631204941.21214356
3151563.591568221204939.615033893151565.397338881204938.01759614
3151567.202781471204936.420486483151569.00822406 1204934.8233768
3151570.813994721204933.225939073151572.619437311204931.62882939
3151574.424879891204930.031719733151576.230650561204928.43428198
3151578.036093131204926.837172313151579.841535721204925.24006264
3151581.64730638 1204923.64262493151583.452748971204922.04551522
3151585.258191561204920.448405563151587.063962221204918.85096781
3151588.869404811204917.253858153151590.674847391204915.65674847
3151592.480618061204914.059310733151594.286060631204912.46220106
3151596.09150322 1204910.86509143151597.897273881204909.26765364
3151599.702716471204907.670543983151601.508159061204906.07343431
3151603.313929721204904.475996553151605.119372311204902.87888689
3151607.103620311204901.490110143151609.087540221204900.10100532
3151611.071788221204898.712228573151613.055708141204897.32345182
3151615.039956141204895.934346973151617.024204131204894.54557022
3151619.008124051204893.156793483151620.992372051204891.76768865
3151622.97662005 1204890.37891193151624.960539971204888.99013515
3151626.944787961204887.601030313151628.928707881204886.21225356
3151630.912955881204884.823476813151632.897203891204883.43437198
3151634.881123811204882.045595233151636.865371811204880.65681848
3151638.849619811204879.267713643151640.833539721204877.87893689
3151642.817787721204876.490160143151644.801707641204875.10105531
3151646.785955641204873.712278563151648.301044461204872.05512965
3151649.816133311204870.397980723151651.331550231204868.74050373
3151652.846639051204867.083354823151654.361727891204865.42620589
3151655.876816721204863.769056983151657.391905561204862.11190806
3151658.906994391204860.454759153151660.422411311204858.79728214
3151661.937500131204857.140133233151663.45258898 1204855.4829843
3151665.666167211204854.506608313151667.879745471204853.52990423
3151670.093323721204852.553528223151672.306901981204851.57682414
3151674.520480221204850.600448153151676.734058471204849.62374406
3151678.947636721204848.647368063151681.161214981204847.67066398
3151683.244544131204848.19166031 3151685.32787331204848.71232855
3151687.41120248 1204849.23332493151689.494531631204849.75399314
 3151691.57786081204850.274989473151693.661189971204850.79565772