Proj Title=Bald Eagle Cr. for the WCDS Project
Current Plan=p04
Default Exp/Contr=0.3,0.1
English Units
Geom File=g01
Geom File=g02
Geom File=g03
Flow File=f02
Flow File=f01
Unsteady File=u02
Plan File=p01
Plan File=p02
Plan File=p03
Plan File=p04
Y Axis Title=Elevation
X Axis Title(PF)=Main Channel Distance
X Axis Title(XS)=Station
DSS Caption Additional Text=Jensen
BEGIN DESCRIPTION:
Bald Eagle Creek.  This model does not represent actual water surface elevations for Bald Eagle Creek.  This data set is intended to be used only as an example Unsteady Flow data set.
END DESCRIPTION:
DSS Start Date=18FEB1999
DSS Start Time=0000
DSS End Date=22FEB1999
DSS End Time=0500
DSS File=dss
DSS Export Filename=
DSS Export Rating Curves= 0 
DSS Export Rating Curve Sorted= 0 
DSS Export Volume Flow Curves= 0 
DXF Filename=..\Unsteady Examples\BaldEagle.
DXF OffsetX= 0 
DXF OffsetY= 0 
DXF ScaleX= 1 
DXF ScaleY= 10 
GIS Export Profiles= 0 
