Plan Title=Steady Flow Run
Version=Version 3.0 Beta April 15, 2000
Short Identifier=SteadyRun   
Simulation Date=02/18/1999,0000,02/24/1999,0500
Geom File=g01
Flow File=f02
Subcritical Flow
K Sum by GR= 0 
Std Step Tol= 0.01 
Critical Tol= 0.01 
Num of Std Step Trials= 20 
Max Error Tol= 0.3 
Flow Tol Ratio= 0.001 
Split Flow NTrial= 30 
Split Flow Tol= 0.02 
Split Flow Ratio= 0.02 
Log Output Level= 0 
Friction Slope Method= 1 
Parabolic Critical Depth
Global Vel Dist= 15 , 15 , 15 
Global Log Level= 0 
Encroach Param=-1 ,0,0, 0 
Computation Interval=2MIN
Output Interval=1HOUR
Run HTab= 1 
Run UNet= 1 
Run PostProcess= 1 
UNET Theta= 1 
UNET ZTol= 0.01 
UNET ZSATol= 0.1 
UNET MxIter= 20 
UNET MaxInSteps= 20 
UNET DtIC= 0 
UNET DtMin= 0 
UNET MaxCRTS= 20 
UNET WFStab= 2 
UNET SFStab= 1 
UNET WFX= 1 
UNET SFX= 1 
UNET Convert EG Bridges= 1 
Instantaneous Interval=2HOUR
DSS File=dss
Write IC File= 0 
IC Time=
Write Velocity= 0 
Write Detailed= 0 
Stage Flow Hydrograph=Bald Eagle      ,Loc Hav         ,138154.4
Stage Flow Hydrograph=Bald Eagle      ,Loc Hav         ,137690.8
Stage Flow Hydrograph=Bald Eagle      ,Loc Hav         ,137327.0
Stage Flow Hydrograph=Bald Eagle      ,Loc Hav         ,136564.9
Stage Flow Hydrograph=Bald Eagle      ,Loc Hav         ,136202.3
Stage Flow Hydrograph=Bald Eagle      ,Loc Hav         ,135591.4
Stage Flow Hydrograph=Bald Eagle      ,Loc Hav         ,135068.7
Stage Flow Hydrograph=Bald Eagle      ,Loc Hav         ,134487.2
Stage Flow Hydrograph=Bald Eagle      ,Loc Hav         ,133881.0
Stage Flow Hydrograph=Bald Eagle      ,Loc Hav         ,133446.1
Stage Flow Hydrograph=Bald Eagle      ,Loc Hav         ,132973.6
Stage Flow Hydrograph=Bald Eagle      ,Loc Hav         ,132363.8
Stage Flow Hydrograph=Bald Eagle      ,Loc Hav         ,131699.7
Stage Flow Hydrograph=Bald Eagle      ,Loc Hav         ,130997.6
Stage Flow Hydrograph=Bald Eagle      ,Loc Hav         ,130339.2
Stage Flow Hydrograph=Bald Eagle      ,Loc Hav         ,129627.5
Stage Flow Hydrograph=Bald Eagle      ,Loc Hav         ,128760.7
Stage Flow Hydrograph=Bald Eagle      ,Loc Hav         ,128280.7
Stage Flow Hydrograph=Bald Eagle      ,Loc Hav         ,127410.9
Stage Flow Hydrograph=Bald Eagle      ,Loc Hav         ,126741.0
Stage Flow Hydrograph=Bald Eagle      ,Loc Hav         ,126454.1
Stage Flow Hydrograph=Bald Eagle      ,Loc Hav         ,126062.6
Stage Flow Hydrograph=Bald Eagle      ,Loc Hav         ,125704.7
Stage Flow Hydrograph=Bald Eagle      ,Loc Hav         ,125091.9
Stage Flow Hydrograph=Bald Eagle      ,Loc Hav         ,124615.5
Stage Flow Hydrograph=Bald Eagle      ,Loc Hav         ,124025.0
Stage Flow Hydrograph=Bald Eagle      ,Loc Hav         ,123503.5
Stage Flow Hydrograph=Bald Eagle      ,Loc Hav         ,123123.6
Stage Flow Hydrograph=Bald Eagle      ,Loc Hav         ,122703.3
Stage Flow Hydrograph=Bald Eagle      ,Loc Hav         ,122190.8
Stage Flow Hydrograph=Bald Eagle      ,Loc Hav         ,121754.0
Stage Flow Hydrograph=Bald Eagle      ,Loc Hav         ,121394.1
Stage Flow Hydrograph=Bald Eagle      ,Loc Hav         ,120862.6
Stage Flow Hydrograph=Bald Eagle      ,Loc Hav         ,120421.4
Stage Flow Hydrograph=Bald Eagle      ,Loc Hav         ,119954.9
Stage Flow Hydrograph=Bald Eagle      ,Loc Hav         ,119473.8
Stage Flow Hydrograph=Bald Eagle      ,Loc Hav         ,118901.0
Stage Flow Hydrograph=Bald Eagle      ,Loc Hav         ,118300.5
Stage Flow Hydrograph=Bald Eagle      ,Loc Hav         ,117753.9
Stage Flow Hydrograph=Bald Eagle      ,Loc Hav         ,117180.8
Stage Flow Hydrograph=Bald Eagle      ,Loc Hav         ,116401.3
Stage Flow Hydrograph=Bald Eagle      ,Loc Hav         ,115584.2
Stage Flow Hydrograph=Bald Eagle      ,Loc Hav         ,114899.8
Stage Flow Hydrograph=Bald Eagle      ,Loc Hav         ,113985.6
Stage Flow Hydrograph=Bald Eagle      ,Loc Hav         ,112856.9
Stage Flow Hydrograph=Bald Eagle      ,Loc Hav         ,111971.0
Stage Flow Hydrograph=Bald Eagle      ,Loc Hav         ,110657.4
Stage Flow Hydrograph=Bald Eagle      ,Loc Hav         ,109659.9
Stage Flow Hydrograph=Bald Eagle      ,Loc Hav         ,108600.1
Stage Flow Hydrograph=Bald Eagle      ,Loc Hav         ,107333.6
Stage Flow Hydrograph=Bald Eagle      ,Loc Hav         ,106466.0
Stage Flow Hydrograph=Bald Eagle      ,Loc Hav         ,105178.6
Stage Flow Hydrograph=Bald Eagle      ,Loc Hav         ,104647.2
Stage Flow Hydrograph=Bald Eagle      ,Loc Hav         ,104195.0
Stage Flow Hydrograph=Bald Eagle      ,Loc Hav         ,103854.0
Stage Flow Hydrograph=Bald Eagle      ,Loc Hav         ,103369.7
Stage Flow Hydrograph=Bald Eagle      ,Loc Hav         ,103122.3
Stage Flow Hydrograph=Bald Eagle      ,Loc Hav         ,101440.3
Stage Flow Hydrograph=Bald Eagle      ,Loc Hav         ,100657.3
Stage Flow Hydrograph=Bald Eagle      ,Loc Hav         ,99452.75
Stage Flow Hydrograph=Bald Eagle      ,Loc Hav         ,98206.87
Stage Flow Hydrograph=Bald Eagle      ,Loc Hav         ,97607.35
Stage Flow Hydrograph=Bald Eagle      ,Loc Hav         ,96370.43
Stage Flow Hydrograph=Bald Eagle      ,Loc Hav         ,94560.01
Stage Flow Hydrograph=Bald Eagle      ,Loc Hav         ,93391.71
Stage Flow Hydrograph=Bald Eagle      ,Loc Hav         ,92011.85
Stage Flow Hydrograph=Bald Eagle      ,Loc Hav         ,91030.01
Stage Flow Hydrograph=Bald Eagle      ,Loc Hav         ,90096.99
Stage Flow Hydrograph=Bald Eagle      ,Loc Hav         ,89060.69
Stage Flow Hydrograph=Bald Eagle      ,Loc Hav         ,87861.14
Stage Flow Hydrograph=Bald Eagle      ,Loc Hav         ,86942.04
Stage Flow Hydrograph=Bald Eagle      ,Loc Hav         ,85569.53
Stage Flow Hydrograph=Bald Eagle      ,Loc Hav         ,84724.08
Stage Flow Hydrograph=Bald Eagle      ,Loc Hav         ,83563.41
Stage Flow Hydrograph=Bald Eagle      ,Loc Hav         ,82607.89
Stage Flow Hydrograph=Bald Eagle      ,Loc Hav         ,81849.41
Stage Flow Hydrograph=Bald Eagle      ,Loc Hav         ,81084.18
Stage Flow Hydrograph=Bald Eagle      ,Loc Hav         ,80500.50
Stage Flow Hydrograph=Bald Eagle      ,Loc Hav         ,79684.28
Stage Flow Hydrograph=Bald Eagle      ,Loc Hav         ,78627.87
Stage Flow Hydrograph=Bald Eagle      ,Loc Hav         ,76643.40
Stage Flow Hydrograph=Bald Eagle      ,Loc Hav         ,76002.96
Stage Flow Hydrograph=Bald Eagle      ,Loc Hav         ,75917.82
Stage Flow Hydrograph=Bald Eagle      ,Loc Hav         ,75616.14
Stage Flow Hydrograph=Bald Eagle      ,Loc Hav         ,74650.60
Stage Flow Hydrograph=Bald Eagle      ,Loc Hav         ,74207.96
Stage Flow Hydrograph=Bald Eagle      ,Loc Hav         ,73504.24
Stage Flow Hydrograph=Bald Eagle      ,Loc Hav         ,72303.68
Stage Flow Hydrograph=Bald Eagle      ,Loc Hav         ,71400.81
Stage Flow Hydrograph=Bald Eagle      ,Loc Hav         ,70651.52
Stage Flow Hydrograph=Bald Eagle      ,Loc Hav         ,69567.33
Stage Flow Hydrograph=Bald Eagle      ,Loc Hav         ,68604.09
Stage Flow Hydrograph=Bald Eagle      ,Loc Hav         ,67326.78
Stage Flow Hydrograph=Bald Eagle      ,Loc Hav         ,66070.17
Stage Flow Hydrograph=Bald Eagle      ,Loc Hav         ,64908.02
Stage Flow Hydrograph=Bald Eagle      ,Loc Hav         ,63812.99
Stage Flow Hydrograph=Bald Eagle      ,Loc Hav         ,62746.41
Stage Flow Hydrograph=Bald Eagle      ,Loc Hav         ,61896.89
Stage Flow Hydrograph=Bald Eagle      ,Loc Hav         ,60901.09
Stage Flow Hydrograph=Bald Eagle      ,Loc Hav         ,59795.28
Stage Flow Hydrograph=Bald Eagle      ,Loc Hav         ,58836.23
Stage Flow Hydrograph=Bald Eagle      ,Loc Hav         ,58708.54
Stage Flow Hydrograph=Bald Eagle      ,Loc Hav         ,58091.91
Stage Flow Hydrograph=Bald Eagle      ,Loc Hav         ,57700.27
Stage Flow Hydrograph=Bald Eagle      ,Loc Hav         ,57250.60
Stage Flow Hydrograph=Bald Eagle      ,Loc Hav         ,56775.92
Stage Flow Hydrograph=Bald Eagle      ,Loc Hav         ,56243.79
Stage Flow Hydrograph=Bald Eagle      ,Loc Hav         ,55700.55
Stage Flow Hydrograph=Bald Eagle      ,Loc Hav         ,54696.51
Stage Flow Hydrograph=Bald Eagle      ,Loc Hav         ,53922.53
Stage Flow Hydrograph=Bald Eagle      ,Loc Hav         ,52879.19
Stage Flow Hydrograph=Bald Eagle      ,Loc Hav         ,51784.74
Stage Flow Hydrograph=Bald Eagle      ,Loc Hav         ,50720.68
Stage Flow Hydrograph=Bald Eagle      ,Loc Hav         ,49715.77
Stage Flow Hydrograph=Bald Eagle      ,Loc Hav         ,48965.94
Stage Flow Hydrograph=Bald Eagle      ,Loc Hav         ,48110.09
Stage Flow Hydrograph=Bald Eagle      ,Loc Hav         ,47453.14
Stage Flow Hydrograph=Bald Eagle      ,Loc Hav         ,46722.59
Stage Flow Hydrograph=Bald Eagle      ,Loc Hav         ,46310.48
Stage Flow Hydrograph=Bald Eagle      ,Loc Hav         ,45805.37
Stage Flow Hydrograph=Bald Eagle      ,Loc Hav         ,45233.89
Stage Flow Hydrograph=Bald Eagle      ,Loc Hav         ,44529.29
Stage Flow Hydrograph=Bald Eagle      ,Loc Hav         ,43919.30
Stage Flow Hydrograph=Bald Eagle      ,Loc Hav         ,42895.87
Stage Flow Hydrograph=Bald Eagle      ,Loc Hav         ,41806.43
Stage Flow Hydrograph=Bald Eagle      ,Loc Hav         ,40526.85
Stage Flow Hydrograph=Bald Eagle      ,Loc Hav         ,39499.37
Stage Flow Hydrograph=Bald Eagle      ,Loc Hav         ,38446.87
Stage Flow Hydrograph=Bald Eagle      ,Loc Hav         ,37962.54
Stage Flow Hydrograph=Bald Eagle      ,Loc Hav         ,37385.23
Stage Flow Hydrograph=Bald Eagle      ,Loc Hav         ,36769.88
Stage Flow Hydrograph=Bald Eagle      ,Loc Hav         ,36663.76
Stage Flow Hydrograph=Bald Eagle      ,Loc Hav         ,36339.56
Stage Flow Hydrograph=Bald Eagle      ,Loc Hav         ,35648.50
Stage Flow Hydrograph=Bald Eagle      ,Loc Hav         ,35072.37
Stage Flow Hydrograph=Bald Eagle      ,Loc Hav         ,34098.93
Stage Flow Hydrograph=Bald Eagle      ,Loc Hav         ,33498.68
Stage Flow Hydrograph=Bald Eagle      ,Loc Hav         ,32195.47
Stage Flow Hydrograph=Bald Eagle      ,Loc Hav         ,30878.12
Stage Flow Hydrograph=Bald Eagle      ,Loc Hav         ,29563.77
Stage Flow Hydrograph=Bald Eagle      ,Loc Hav         ,27226.40
Stage Flow Hydrograph=Bald Eagle      ,Loc Hav         ,25960.70
Stage Flow Hydrograph=Bald Eagle      ,Loc Hav         ,24843.25
Stage Flow Hydrograph=Bald Eagle      ,Loc Hav         ,24417.73
Stage Flow Hydrograph=Bald Eagle      ,Loc Hav         ,23872.06
Stage Flow Hydrograph=Bald Eagle      ,Loc Hav         ,23783.65
Stage Flow Hydrograph=Bald Eagle      ,Loc Hav         ,23384.79
Stage Flow Hydrograph=Bald Eagle      ,Loc Hav         ,22982.97
Stage Flow Hydrograph=Bald Eagle      ,Loc Hav         ,22386.15
Stage Flow Hydrograph=Bald Eagle      ,Loc Hav         ,21283.34
Stage Flow Hydrograph=Bald Eagle      ,Loc Hav         ,21199.93
Stage Flow Hydrograph=Bald Eagle      ,Loc Hav         ,20127.30
Stage Flow Hydrograph=Bald Eagle      ,Loc Hav         ,19036.24
Stage Flow Hydrograph=Bald Eagle      ,Loc Hav         ,18200.10
Stage Flow Hydrograph=Bald Eagle      ,Loc Hav         ,17549.23
Stage Flow Hydrograph=Bald Eagle      ,Loc Hav         ,16787.45
Stage Flow Hydrograph=Bald Eagle      ,Loc Hav         ,15407.88
Stage Flow Hydrograph=Bald Eagle      ,Loc Hav         ,14814.34
Stage Flow Hydrograph=Bald Eagle      ,Loc Hav         ,13326.74
Stage Flow Hydrograph=Bald Eagle      ,Loc Hav         ,12035.22
Stage Flow Hydrograph=Bald Eagle      ,Loc Hav         ,11865.80
Stage Flow Hydrograph=Bald Eagle      ,Loc Hav         ,11116.44
Stage Flow Hydrograph=Bald Eagle      ,Loc Hav         ,10995.73
Stage Flow Hydrograph=Bald Eagle      ,Loc Hav         ,10221.14
Stage Flow Hydrograph=Bald Eagle      ,Loc Hav         ,9258.941
Stage Flow Hydrograph=Bald Eagle      ,Loc Hav         ,8541.462
Stage Flow Hydrograph=Bald Eagle      ,Loc Hav         ,7936.130
Stage Flow Hydrograph=Bald Eagle      ,Loc Hav         ,6940.066
Stage Flow Hydrograph=Bald Eagle      ,Loc Hav         ,6267.489
Stage Flow Hydrograph=Bald Eagle      ,Loc Hav         ,5523.234
Stage Flow Hydrograph=Bald Eagle      ,Loc Hav         ,4293.710
Stage Flow Hydrograph=Bald Eagle      ,Loc Hav         ,3047.378
Stage Flow Hydrograph=Bald Eagle      ,Loc Hav         ,2731.142
Stage Flow Hydrograph=Bald Eagle      ,Loc Hav         ,2501.017
Stage Flow Hydrograph=Bald Eagle      ,Loc Hav         ,2371.827
Stage Flow Hydrograph=Bald Eagle      ,Loc Hav         ,1692.633
Stage Flow Hydrograph=Bald Eagle      ,Loc Hav         ,1212.855
Stage Flow Hydrograph=Bald Eagle      ,Loc Hav         ,659.942 
HTab Param Time=2/7/2000 3:55:25 PM 
