Flow Title=Steady Flow Data
Program Version=4.01
Number of Profiles= 13 
Profile Names=.5 year,1 year,2 year,5 year,10 year,25 year,50 year,100 year,PF 9,PF 10,PF 11,PF 12,PF 13
River Rch & RM=Bald Eagle,Loc Hav         ,138154.4
     100    2000    3000    5000   10000   15000   20000   25000   30000   35000
   40000   45000   50000
Boundary for River Rch & Prof#=Bald Eagle,Loc Hav         , 1 
Up Type= 0 
Dn Type= 4 
Dn Rating Curve # Pts= 8 
       0   529.2    1000     535    3000     540   16500   557.3   27000   562.1
   32500   564.1   47000   568.6   61500   573.1
Boundary for River Rch & Prof#=Bald Eagle,Loc Hav         , 2 
Up Type= 0 
Dn Type= 0 
Boundary for River Rch & Prof#=Bald Eagle,Loc Hav         , 3 
Up Type= 0 
Dn Type= 0 
Boundary for River Rch & Prof#=Bald Eagle,Loc Hav         , 4 
Up Type= 0 
Dn Type= 0 
Boundary for River Rch & Prof#=Bald Eagle,Loc Hav         , 5 
Up Type= 0 
Dn Type= 0 
Boundary for River Rch & Prof#=Bald Eagle,Loc Hav         , 6 
Up Type= 0 
Dn Type= 0 
Boundary for River Rch & Prof#=Bald Eagle,Loc Hav         , 7 
Up Type= 0 
Dn Type= 0 
Boundary for River Rch & Prof#=Bald Eagle,Loc Hav         , 8 
Up Type= 0 
Dn Type= 0 
Boundary for River Rch & Prof#=Bald Eagle,Loc Hav         , 9 
Up Type= 0 
Dn Type= 0 
Boundary for River Rch & Prof#=Bald Eagle,Loc Hav         , 10 
Up Type= 0 
Dn Type= 0 
Boundary for River Rch & Prof#=Bald Eagle,Loc Hav         , 11 
Up Type= 0 
Dn Type= 0 
Boundary for River Rch & Prof#=Bald Eagle,Loc Hav         , 12 
Up Type= 0 
Dn Type= 0 
Gate Openings=Bald Eagle      ,Loc Hav         ,81500   ,Gate #1     ,
      10       1      10       1      10       1      10       1      10       1
      10       1      10       1      10       1       0       0       0       0
       0       0       0       0       0       0
DSS Import StartDate=
DSS Import StartTime=
DSS Import EndDate=
DSS Import EndTime=
DSS Import GetInterval= 0 
DSS Import Interval=
DSS Import GetPeak= 0 
DSS Import FillOption= 0 
