Flow Title=Debug Mode - PostProcess Steady Flow
Version=Version 3.0 Beta
Number of Profiles= 76 
Profile Names=Max WS,17Feb1999 2400,18Feb1999 0200,18Feb1999 0400,18Feb1999 0600,18Feb1999 0800,18Feb1999 1000,18Feb1999 1200,18Feb1999 1400,18Feb1999 1600,18Feb1999 1800,18Feb1999 2000,18Feb1999 2200,18Feb1999 2400,19Feb1999 0200,19Feb1999 0400,19Feb1999 0600,19Feb1999 0800,19Feb1999 1000,19Feb1999 1200,19Feb1999 1400,19Feb1999 1600,19Feb1999 1800,19Feb1999 2000,19Feb1999 2200,19Feb1999 2400,20Feb1999 0200,20Feb1999 0400,20Feb1999 0600,20Feb1999 0800,20Feb1999 1000,20Feb1999 1200,20Feb1999 1400,20Feb1999 1600,20Feb1999 1800,20Feb1999 2000,20Feb1999 2200,20Feb1999 2400,21Feb1999 0200,21Feb1999 0400,21Feb1999 0600,21Feb1999 0800,21Feb1999 1000,21Feb1999 1200,21Feb1999 1400,21Feb1999 1600,21Feb1999 1800,21Feb1999 2000,21Feb1999 2200,21Feb1999 2400,22Feb1999 0200,22Feb1999 0400,22Feb1999 0600,22Feb1999 0800,22Feb1999 1000,22Feb1999 1200,22Feb1999 1400,22Feb1999 1600,22Feb1999 1800,22Feb1999 2000,22Feb1999 2200,22Feb1999 2400,23Feb1999 0200,23Feb1999 0400,23Feb1999 0600,23Feb1999 0800,23Feb1999 1000,23Feb1999 1200,23Feb1999 1400,23Feb1999 1600,23Feb1999 1800,23Feb1999 2000,23Feb1999 2200,23Feb1999 2400,24Feb1999 0200,24Feb1999 0400
River Rch & RM=Bald Eagle,Loc Hav         ,138154.4
49985.15    1000 3512.82 6025.64 8538.4611051.28 13564.116076.9218589.7421102.56
23615.3826128.2128641.0331153.8533666.6736179.4938692.3141205.1343717.9546230.77
48743.5949554.5548663.6447772.7346881.8245990.91   4510044209.0943318.1842427.27
41536.3640645.4539754.5538863.6437972.7337081.8236190.91   3530034409.0933518.18
32627.2731736.3630845.4629954.5429063.6428172.7327281.8226390.91   2550024609.09
23718.1822827.2721936.3621045.4620154.5419263.6418372.7317481.8216590.91   15700
14809.0913918.1813027.2712136.3611245.4510354.55 9463.64 8572.73 7681.82 6790.91
    5900 5009.09 4118.18 3227.27 2336.36 1445.46
River Rch & RM=Bald Eagle,Loc Hav         ,137690.8
49982.39999.9879  3467.85980.094  8507.411021.1313541.1516054.2518567.96 21082.2
23597.48 26110.628624.2631137.2433650.3636164.5938677.7541190.9943703.93   46217
48731.4849558.8448667.95   4777746886.59 45995.545104.5844213.5543322.5642431.79
 41540.940650.1839759.48 38868.737977.9937087.15 36196.335305.4334414.5733523.74
32632.9131742.0230851.1829960.29 29069.828178.9427288.0826397.4525506.5224615.74
23724.88   2283421943.1421052.3320161.4219271.2418380.3317490.0416599.2315708.42
14817.5913926.8113035.9612145.1711255.1410365.759475.0268584.3557693.6646802.903
5913.7545025.9744135.511 3244.712356.6761468.567
River Rch & RM=Bald Eagle,Loc Hav         ,137327.0
49978.73999.98433424.6745937.2228477.134 10991.813517.6916031.1118545.4621060.72
23578.8926092.3228606.7931120.0433633.46 36149.338662.69 41176.443689.4946202.79
48719.0349563.2148672.3947781.4146891.5446000.2845109.21 44218.143327.0442436.41
41545.5940655.0739764.53 38873.937983.3937092.6236201.8335311.0234420.2333529.47
 32638.731747.8630857.0829966.2129076.2428185.4827294.6426404.2225513.3524622.66
23731.8422840.9821950.1821059.4920168.6419279.2418388.4517498.5216607.8415717.09
 14826.413935.6913044.9512154.2711264.5910376.719486.1848595.8237705.4166814.828
5926.1135041.9814152.191  3261.92372.1461486.455
River Rch & RM=Bald Eagle,Loc Hav         ,136564.9
49960.71999.97593354.6355877.4948428.80110947.1713478.4815993.8618509.4221025.94
23546.8326061.8828577.1631091.2133605.2836121.8938636.4141150.6343664.0746177.95
48694.8749571.7848680.8847789.8646899.58 46007.545115.5344223.89 43332.942442.56
41552.2940662.4839772.5638882.54 37992.337101.8836211.3835320.7334430.0733539.58
32648.8631758.3630867.7529976.9629087.0728196.6527305.7726415.56 25524.924634.15
23743.48 22852.721962.24 21071.920181.1119292.3718401.8817512.2716621.75 15731.2
14840.7313950.0913059.8812169.5211279.26 10393.39503.1968613.5597723.5176833.403
5945.1515064.2114175.5063286.3962392.8991510.349
River Rch & RM=Bald Eagle,Loc Hav         ,136202.3
49959.59999.96913323.6675853.2928406.945 10928.113460.5715978.0218494.2621011.96
 23532.7   2604928564.4731079.1433593.6636109.8638625.1841139.3943653.1946167.54
48683.8649575.6148684.6947793.5646902.5846009.5245116.7644224.6443333.7142443.66
41553.7940664.6839775.3838885.8237995.8237105.62 36215.435324.8134434.2133543.89
32653.2431762.8730872.4329981.6729091.6128201.3627310.5526420.3525529.6924639.01
23748.3622857.6421967.4521077.2520186.5219297.72 18407.317518.06 16627.615737.15
14846.77 13956.213066.2612176.1611285.8910400.199510.2428621.1357731.2286841.318
5953.6885072.6974184.3213295.601 2402.681519.105
River Rch & RM=Bald Eagle,Loc Hav         ,135591.4
49939.57999.96693264.5775810.3738366.20910892.3413428.1115948.7918466.0420987.07
   2350826026.0128542.0331058.2833573.8936090.3238606.5641120.84 43635.446150.87
 48667.349581.3448690.4147798.8646906.7946011.2745116.6844223.5643332.8642443.57
41554.67 40667.339779.2838890.6938001.2737111.6136221.7635331.4634440.9433550.97
32660.51 31770.230880.1429989.3929099.5628209.5227318.8326428.7325537.9824647.46
23756.8222866.2821976.6421086.5820196.0919307.4318417.0617528.5416638.2715748.05
14857.7913967.4213077.5912188.2211298.1510412.859523.1838634.9137745.3816855.883
5968.7825088.8174200.9133312.6632419.0321532.612
River Rch & RM=Bald Eagle,Loc Hav         ,135068.7
41155.91999.9478 3196.795771.4458325.90210859.3513394.85 15917.918436.1520959.58
23480.6825999.9428516.7631035.7933551.0536067.85 38584.841099.32   4361546131.09
48647.7249588.0948696.8847804.5646910.3746010.0545112.2744217.5543327.6342439.82
41552.8940668.5239782.5538895.4738006.9537118.1636228.9135339.08 34448.633558.86
32668.7431778.5530889.2329998.5129108.6728218.98 27328.226438.2925547.54 24657.1
23766.75 22876.221986.6221096.8320206.5419318.05 18427.817539.9616649.9815759.99
14869.8613979.7613089.9912200.5311310.6610425.629536.3258648.5857759.4036870.284
5983.422 5103.164215.5753327.5492432.8451545.967
River Rch & RM=Bald Eagle,Loc Hav         ,134487.2
40447.95999.92163118.574 5710.298273.19410811.3413344.8415873.5118393.5720917.62
23439.7825961.2628479.8131001.5133515.9836033.6938551.95 41066.943584.1346100.45
48617.74 49598.248706.5147812.6846914.2546004.6145101.23   4420443315.9242431.39
41548.1640668.6639786.3138901.7138014.9337127.3536239.2135350.0734459.7833570.18
32680.7131790.7330902.6330011.7629122.1128232.7727341.9826452.17 25561.6 24671.3
23781.0922890.7522001.1921111.8720221.92 19333.518443.7817556.1516666.5415776.74
14887.1313997.2713107.6812217.8211328.3310443.619554.7988666.988 7778.156889.374
6002.8585122.0174234.6813346.8562452.2611564.985
River Rch & RM=Bald Eagle,Loc Hav         ,133881.0
40125.14999.89783064.6465628.0528214.03710750.74 13286.615824.46 18347.520871.91
23396.2925920.5328441.8430964.7933479.7335998.8438518.6541034.2343552.6846069.35
48587.7249608.1148715.9547819.9946915.7845993.8645083.6644184.1343298.9242418.82
41540.1440666.5539788.3838906.6338021.96 37135.836248.7435360.5334470.5233580.96
32692.1831802.5530915.7230024.6229135.2728246.0327355.6226465.7225575.3424685.09
23794.96   2290522015.9821127.0920237.6119349.4618460.0617572.2516683.1515793.65
14904.4714014.72 13125.412235.8811346.5410462.229573.685 8685.597797.034 6908.65
6022.4385141.9424254.8133367.1612472.3921584.994
River Rch & RM=Bald Eagle,Loc Hav         ,133446.1
39832.97  999.872998.2415563.5348170.77210707.5313245.5515790.8118316.6720841.87
23367.5225893.5528417.1630941.3833456.7335976.5738497.3241013.51 43532.646049.62
48568.72 49614.3 48721.8 47824.146915.3645983.8145068.5444167.8543285.2242408.34
41533.23   40664 39788.938909.2338025.85   3714136254.6535366.9934477.2233587.62
32699.2731810.0330924.0530032.8929143.5228254.4427364.0526474.1725583.7324693.56
23803.6522913.9122025.16 21136.720247.4819359.6218470.22 17582.516693.75 15804.5
14915.3714025.8213136.6412247.3811358.11   104749585.536 8697.747809.3076921.096
6035.0925154.7374267.7793380.223 2485.431597.999
River Rch & RM=Bald Eagle,Loc Hav         ,132973.6
39479.42999.84612901.2935497.7148124.84710662.3713201.6415754.2518284.2920810.33
23336.7225864.33 28391.230917.1333432.89 35953.238474.4240991.6243511.38 46028.8
48548.7249620.6348727.6247827.3946912.6645968.6145047.3444145.5343266.6942394.25
41523.8440659.77 39788.638911.3938029.5937146.2236260.7735373.6434484.1633594.57
32706.7931817.9330933.0330041.8229152.4328263.3627372.7326483.0525592.4824702.43
23812.6322923.2822034.8121146.7220257.8219370.1618480.8817593.4116704.8215815.62
14926.7414037.3613148.2812259.16 11370.3 10486.39597.9738710.4647822.1246934.061
6048.1185167.7614281.1423393.704 2499.171611.846
River Rch & RM=Bald Eagle,Loc Hav         ,132363.8
39057.14999.83442812.5145429.4128074.97410612.67 13153.515707.1218245.4720772.43
23299.4425828.4628358.1630887.4433403.5135924.3838445.84 40963.943484.5746002.29
48523.9449627.9648733.7547828.66 46902.245937.3445009.1144106.3343235.1642370.54
41507.7640651.9339786.4838913.1238033.8637152.1636268.0635381.9934492.7933603.25
32716.3231827.9430944.4930053.3229163.8328274.7627384.0226494.4625603.9724713.89
23824.0122935.0222047.1821159.3320270.77 19383.418494.4917607.3416718.7415829.76
14941.1314052.02 13163.112274.0311385.4610501.63  9613.58726.2587838.1676950.494
6064.4325184.229 4298.083411.0482516.712 1629.17
River Rch & RM=Bald Eagle,Loc Hav         ,131699.7
38635.25999.81962754.4535376.108 8022.35 10560.813108.9415660.5718207.6320735.56
23262.9725794.9128324.8430858.2533374.3635896.3638418.0540936.86   4345845975.42
48498.4349632.35 48733.347815.4946866.0545871.6244941.1144045.38 43188.942335.32
41483.9540639.1639780.91 38912.7 38036.737157.1136274.91 35390.134501.3233611.65
32725.9431838.1130956.3430065.1729175.1728286.4627395.7526506.1925615.7824725.68
23835.6922947.1222060.0421172.6420284.3619397.2618508.7917621.7716733.2215844.62
14956.0414067.3613178.5112289.6511400.85 10517.69629.5378742.4797854.9126967.613
6081.917  5202.14316.0673429.3122535.4121647.969
River Rch & RM=Bald Eagle,Loc Hav         ,130997.6
38343.73   999.82667.975 5288.697939.05710482.9813040.1815598.4318155.2220684.41
23212.5825748.5828278.1630815.9633332.2935858.29   3838040899.77   43421 45936.7
 48457.749628.2148711.5747755.8446755.7945720.5544802.9743935.2843108.2442275.39
41443.57 40616.639770.2538909.6738038.6437162.7536283.75 35400.434512.3533622.24
32738.6931851.4530972.5230081.1829190.5928302.2727411.4226522.0725631.4524741.69
23851.5622963.8322077.7521191.0920303.5219416.61 18528.7 17642.316753.9815865.84
14977.2814089.1213200.1412311.9811423.3810540.589652.7918765.9197878.7916992.128
6106.8675227.8384342.1563456.0682563.2841676.661
River Rch & RM=Bald Eagle,Loc Hav         ,130339.2
38227.72999.78622580.4455185.749 7843.4410396.1512957.0215532.8518093.5820623.84
23152.7225689.8128219.3230764.95   3328135810.9838331.8840850.7143372.0545883.25
48398.1449604.83 48650.547630.3246559.9145485.1544601.4643781.1842996.7542194.16
41388.7740585.98   3975538904.7838040.4537169.3536293.9535413.1134525.5933634.68
32754.0431867.8430992.3330100.9829210.2528321.5527430.9826541.5525651.0424761.61
23871.1722984.6722099.7421214.0520327.1919440.8618553.6817668.0116779.8915892.42
15004.2614116.2113227.6612339.9911451.8110569.539681.9658795.8477908.7827023.042
6138.2965260.2514375.3243490.1932598.9971713.685
River Rch & RM=Bald Eagle,Loc Hav         ,129627.5
38184.89999.67032460.8125096.0367741.58710298.67 12864.215473.1218027.3120556.69
23084.7425620.0328150.3430704.3933218.9435749.0138267.8540784.8543305.4645807.55
48302.9749540.8948517.9247407.2546259.4445152.5844329.2343576.97 42850.842088.82
41317.4640545.39 39734.838897.56 38041.937177.04 36305.835428.5634541.5433649.64
32772.6431887.9631017.1230125.7629234.9228345.3827455.5526565.7825675.4524786.29
23895.5523010.2922126.9121242.93 20356.519471.6918584.9417699.6416812.3715925.46
15038.0314149.9613262.3612374.7911486.8210605.589718.622 8833.147946.5477061.763
6178.2975301.3474416.8113533.1682644.0351760.578
River Rch & RM=Bald Eagle,Loc Hav         ,128760.7
38126.56999.51412315.0124979.9527597.043 10187.612752.3415384.9417931.9620463.04
22988.3625519.7728051.55 30610.633126.2935654.4638170.47 40686.643202.0645686.06
48134.3449399.1948264.6647035.2545808.4644681.15 43953.843299.4442654.0741947.13
41220.9140489.6139707.5138887.06 38042.737186.1936321.16 35448.234561.9633669.16
32796.9431914.08   31050   3015829266.27 28376.927487.7726597.3225707.2524818.29
23927.3323043.7722162.6621280.7920394.8519511.8918625.8617740.9616855.2215968.73
15082.1314194.1613308.2312420.4611532.8810652.829767.3718882.1847996.6157113.243
6231.3115355.3094472.3323590.6012703.5071822.396
River Rch & RM=Bald Eagle,Loc Hav         ,128280.7
38084.69 999.509 2224.924891.1487492.30510125.2512683.9615313.0117863.2820397.89
22923.0525452.2927987.4130547.9633065.98 35594.238109.1340625.52 43135.545605.94
   4802149297.1748094.61 46802.645537.1444403.6843735.3343137.4442539.8441864.37
41164.2540457.4639691.1938880.77   3804337191.0736329.7135459.2934573.6933680.51
32810.88 31929.331068.9130176.2729284.2128395.2227506.1426615.32 25725.524836.48
23945.6523063.4222183.34 21302.620416.7619534.4618649.1517764.75 16879.515993.57
15107.1114219.7813334.5312446.7911559.4510679.779794.6748910.3458025.5477142.936
6261.5055385.7644504.2143623.3072737.283 1857.84
River Rch & RM=Bald Eagle,Loc Hav         ,127410.9
38098.58999.55742033.5244721.1257312.77310003.9212558.4815179.84 17745.720283.66
22813.8725341.9327885.1130447.4632968.7735498.4638012.4640527.4843026.14 45472.3
47830.5749111.8447799.9546400.0345073.2943932.6743366.6842861.0542345.8241724.52
41059.3640397.9839660.3238869.4238043.3937200.0436344.7435479.3334595.0733700.87
32836.2331956.6531102.4530209.7729317.48 28426.127536.8326645.3225755.7924867.19
23976.7423096.1122218.1221338.9120453.9119572.5718688.3317805.1416920.31 16035.6
15149.0114263.3113377.7812491.1811604.2310725.089840.2918957.4298073.8197192.464
6311.6795437.4024557.2283677.9972793.8121916.799
River Rch & RM=Bald Eagle,Loc Hav         ,126741.0
38029.56999.72111938.3854603.0147210.1749921.25312484.0415104.73 17679.520218.94
22754.6325283.4327828.1630392.1532915.9935446.7837960.23 40468.842959.1545388.96
47709.78 48982.747608.0946138.2144765.5543621.0243124.1142680.2942218.7341630.48
40987.5840356.8139638.9338861.1338043.4137205.8836355.2835492.88 34609.4 33714.6
32853.4831974.9231124.9630232.5429340.0228446.4327557.0726665.1225776.04   24887
23996.78 23116.922240.5421361.9620477.8919597.2918713.8717831.2316946.6616062.31
15176.5414290.8913405.7412519.8511633.3310754.51 9870.318987.5228104.4217224.002
6344.2075471.0754591.4653713.4062830.3661954.712
River Rch & RM=Bald Eagle,Loc Hav         ,126454.1
38002.28999.81351897.0574562.5747179.0249895.515 12462.515083.3517660.2420200.73
22737.33 25266.527811.48 30375.932900.3735431.4237944.6640451.07 42938.345361.45
47669.0948938.4147544.5446057.0244670.51 43524.143049.2342623.9742179.1341600.71
40966.8940344.9939632.7138858.4138043.2937207.3536358.2535496.5934613.4133718.56
 32858.331980.1331131.5530239.0229346.42 28452.727563.3426671.2425782.36 24892.9
24002.9223123.3122247.2121369.0120485.0719604.8118721.6917839.1416954.7116070.43
15185.0414299.3813414.4412528.7311642.1410763.279879.2828996.5848113.7267233.463
6354.1465481.2364601.8143724.146 2841.511966.396
River Rch & RM=Bald Eagle,Loc Hav         ,126062.6
37974.31999.92191844.0144520.8627145.012 9866.2112438.5215060.1817638.9320181.35
22718.12 25247.827793.2530358.1132883.07 35414.337927.3340432.9342915.9645330.22
47621.3548886.1747472.5645971.81 44575.743430.7542975.1842567.2142139.2141572.39
40946.9640333.5239626.5638855.7738043.0937208.78 36360.935500.0834617.1133722.23
32862.7731984.9631137.6430245.0829352.3228458.4127569.2626676.8725788.1824898.74
24008.9123129.5722253.76   2137620492.1619612.31 18729.317846.9816962.7416078.61
15193.3614307.8813422.7912537.2911650.6310771.749887.9689005.5088122.8467242.705
6363.8195490.9724611.8783734.6842852.3051977.356
River Rch & RM=Bald Eagle,Loc Hav         ,125704.7
 37946.51000.0331792.0314479.2867112.8389836.54312414.6315037.7417617.7220162.39
22699.8225229.9327775.7430341.0832866.8135398.2437911.0340415.3742893.3745298.46
47572.4648831.72   4740245891.8444486.0443344.0342904.7542513.5742101.5541546.25
40928.4240322.6839620.7438853.1538042.8237210.0136363.3935503.44 34620.533725.58
32866.9431989.5331143.0930250.4329357.7128463.7327574.6726682.1325793.5324904.27
24014.4223135.3422260.0421382.6220498.8719619.2618736.3917854.3316970.1616086.22
15200.9314315.4913430.3912545.1111658.5610779.84 9896.089013.9718131.3797251.448
6372.8895500.1074621.3433744.3962862.363 1987.38
River Rch & RM=Bald Eagle,Loc Hav         ,125091.9
37891.471000.1891660.3414386.8267058.9689783.58512368.1214996.7617578.9820126.13
22664.44 25195.927744.3330310.4832836.6135368.2837880.38 40382.242848.02 45229.8
47469.25 48712.847255.5545730.7344311.9343173.4942771.6242412.52 42030.841496.23
40892.8640301.9639609.7938848.2838042.1137212.3236367.8735509.5334626.7533731.84
32874.7231998.14 31153.330260.5229367.7628474.0127584.8626692.2525803.69 24914.4
24025.0923146.0722271.6521394.8120511.3919632.0718749.6817868.0916983.9816100.54
15214.9514329.5913444.64   1256011673.4710795.199911.5839029.8668147.4357267.909
6389.7215517.1934639.2353762.479 2881.332007.063
River Rch & RM=Bald Eagle,Loc Hav         ,124615.5
37905.631000.2671550.412 4289.527018.4979739.94312327.0414962.75 17546.520094.24
22633.2325165.8927717.5530284.2232810.0635341.7237852.6740351.6942804.31 45162.8
47367.8448595.4247116.2745579.5644152.69 43022.442654.0442324.4441969.0941453.08
40861.6840283.92 39600.238844.2338041.4437214.6236371.6535514.5534632.1433737.19
32881.3532005.41 31162.2 30269.429376.5828482.8927593.7426700.9125812.4824923.22
24034.1823155.4522281.6321405.2420522.1519643.4318761.2217879.8916996.0516112.77
15227.5514342.2713457.4512573.0811686.5410808.339925.1419043.4998161.4357282.355
6404.4455532.2474654.8833778.6312898.0862024.825
River Rch & RM=Bald Eagle,Loc Hav         ,124025.0
37863.641000.2581429.5884123.5456922.7039659.43212247.9614889.9417480.24 20029.7
22569.9625104.54 27661.730229.9432754.9735286.1537793.32 40282.242699.6445005.24
47139.3848337.7146821.2145266.2343829.5842720.3242415.66 42149.641844.1241368.08
40800.05 40247.839580.9138835.6738040.2537218.8136379.5735524.2934642.8433747.79
 32894.332019.6231180.05 30286.829394.0128500.4927611.1626717.58 25829.924940.84
24051.8823174.2622301.5621425.9720543.4619666.3818784.5417903.4517019.6916136.33
15252.3214367.3813482.96 12598.911712.6310834.489951.9899070.5828189.4067311.695
6434.131 5562.244685.7983810.6942931.1222059.657
River Rch & RM=Bald Eagle,Loc Hav         ,123503.5
37850.051000.1981396.8724049.6956857.7449617.13312204.8614845.5917442.9819993.46
22534.7225070.9127630.5430198.5132723.2635253.81   3775840235.2242626.7344895.72
 46993.448175.6146642.5545080.7543642.5542543.8442278.0842048.8341772.32 41319.5
 40764.140226.9439569.7838830.7438039.32 37220.736383.9535529.93 34648.833753.94
32901.8132027.7831190.4430296.7829403.7528510.4327621.0326727.0825839.8424950.81
24061.9923185.0122312.8521438.0120555.6119679.1918797.75 17917.117033.1716150.01
15266.3314381.5913497.1312613.5111727.4310849.629967.5319086.1838205.545 7328.45
6451.1945579.3314703.5063829.1362950.0832079.238
River Rch & RM=Bald Eagle,Loc Hav         ,123123.6
37822.841000.112 1375.953993.6156811.0779583.49512171.43 14810.8 17415.719966.34
22508.7425045.6827607.9930175.1732699.7935229.8737730.41 40195.942566.0744806.32
46878.0148049.8446507.9344943.4343505.8242416.0242178.2541975.6141720.2141284.53
40737.8740211.8939561.5738827.1838038.5437221.9136386.9335534.0434652.9833758.35
32907.2632033.5531197.8630304.0429410.8328517.4427628.0726734.0825847.0224958.06
24069.2323192.7922321.0221446.95 20564.519688.4718806.9717926.7217043.0916160.12
15276.41 14391.8 13507.312624.0511737.9910860.569978.6829097.4168217.2257340.295
6463.245 5591.824716.2843842.3632963.8112093.291
River Rch & RM=Bald Eagle,Loc Hav         ,122703.3
37836.29 999.9911349.4923932.6246757.0889542.97612132.5414769.9117383.8919934.72
22478.8125016.4627581.6830148.7932673.4135202.6337698.1640147.8942492.7144699.57
46742.0747905.2346357.2244792.3943356.3142277.5242070.7341897.8541663.7741246.75
40710.0540195.8539552.9338823.2938037.8137223.4336390.0835538.2434657.4233763.05
32912.9632039.6131205.6530311.7929418.4728524.9327635.6326741.6125854.7824965.87
24076.9323201.0422330.0921456.4820574.0719698.5118816.9117936.8317053.52 16170.7
15287.0114402.8213518.2812635.3711749.3710872.419990.7299109.547 8229.757352.994
6476.2025605.2014729.8643856.4832978.4522108.509
River Rch & RM=Bald Eagle,Loc Hav         ,122190.8
37822.88999.89021313.6193852.9576686.6739490.44912084.6914721.46 17343.419894.82
22441.7824981.5627548.24 30115.332640.29   3516837654.9140081.7242392.8444558.43
46567.2147722.1346169.6444605.9343170.86 42106.341939.6141802.5341595.9141201.42
40675.4140176.0539542.47 38818.338036.9437225.4236393.9235543.5434662.9133768.86
32919.8632047.14 31215.330321.28 29427.928534.2427644.8526750.5125864.1424975.03
 24086.223210.8522340.9821467.8220585.3419710.3318829.0717949.2317066.0516183.64
15300.1614416.3613531.8112649.1111763.3410886.7910005.429124.4578244.9587368.674
 6492.315621.6934746.7463874.0412996.781 2127.59
River Rch & RM=Bald Eagle,Loc Hav         ,121754.0
37809.13999.73251282.4433779.841 6628.319445.32512045.8614679.8117309.1419861.41
22409.8124951.9427519.6230086.73 32612.135137.6537614.8840020.6442300.7444433.54
46416.9147565.8246011.1944446.7643013.5741962.4441829.0241722.3241538.7341163.37
40646.0240159.1239533.5638814.0638036.2337226.95 36397.2 35548.234667.6233773.77
32925.6832053.5731223.4130329.1829435.8728542.1927652.7726758.0225872.0324982.91
24094.0623219.1722349.82 21477.420594.98 19720.218839.2317959.7217076.5416194.53
 15311.214427.6413543.21 12660.511775.25 10898.810017.679137.1118257.6237381.873
6505.7455635.4424761.0313888.7483012.2272143.513
River Rch & RM=Bald Eagle,Loc Hav         ,121394.1
37808.93999.53881256.2033718.4256576.3549407.18512013.0214644.6817282.08 19835.3
22383.4624927.8827497.1630064.3932589.7735112.8937581.9539969.4142224.2544332.35
46297.4147441.8245886.1744321.4342891.09 41850.9 41743.141659.8441494.1941133.79
40623.1240145.8539526.5338810.8838035.5537228.1536399.6835551.7534671.2933777.53
32930.2132058.5131229.68 30335.329441.8928548.1727658.7926763.7725878.0624989.15
24100.0723225.6522356.68 21484.820602.4919728.0318847.1817967.8217084.7816202.81
15319.68 14436.313552.0112669.3211784.4810908.0910027.089146.8388267.5637392.047
6516.1095646.0164772.0133900.0413024.0562155.743
River Rch & RM=Bald Eagle,Loc Hav         ,120862.6
37795.74999.3467 1221.843623.9396495.1529346.113 11960.314592.0717242.7719797.53
22345.6424893.0827465.0930032.5532557.2735076.5437531.0539889.4142107.09 44181.3
46122.4447261.9345705.78 44139.942711.7341687.1441617.1641565.6641428.4441090.32
40589.2440126.2739515.9538806.0238034.3537229.9236403.37 35556.834676.5733783.02
32936.9632065.7531238.9130344.4629450.7928556.8227667.4826772.0125886.9224997.91
24108.9523234.9822366.8421495.6120613.1819739.5818858.9717979.8617097.2116215.33
15332.3614448.7613564.9312682.43 11797.8 10921.710040.979160.8418282.2557406.803
6531.3295661.5344788.2083916.5833041.2612173.682
River Rch & RM=Bald Eagle,Loc Hav         ,120421.4
37769.57999.26061193.6343551.0386440.9379299.97711922.2114554.1117212.3319768.71
22317.2924866.9427440.8630008.5832532.5535048.0737487.8839822.0242009.62 44059.3
 45983.347118.8445562.7143995.9342569.1641555.5641515.0441488.5541374.61   41055
40561.0640110.0539507.2938801.86 38033.537231.3436406.3335560.8134680.85 33787.6
 32942.532071.7131246.4330351.9829458.1728564.0527675.0326778.6725894.1225005.11
24116.2823242.6122375.0721504.3320621.9619748.9318868.59 17989.717107.2616225.51
 15342.714459.0713575.6412693.2611808.6110932.6610052.269172.3118294.0197418.772
6543.7435674.2054801.3823930.2033055.2972188.331
River Rch & RM=Bald Eagle,Loc Hav         ,119954.9
37756.54999.15251166.4683475.7366392.9859258.007 11889.6 14522.517184.5219743.27
22292.2824844.1127419.2829987.5532510.3835021.2437442.9839753.2141911.1743938.34
45846.5546975.0745419.59 43853.242427.2741423.1541410.3341411.5941319.4941019.21
 40532.240093.6239498.4638797.6438032.6337232.7636409.3635564.8434685.1733792.25
32947.9832077.7331253.9530359.6429465.5328571.6427682.7826785.48 25901.425012.52
 24123.723250.3922383.5321513.1820630.9519758.5118878.3417999.4317117.3416235.59
15353.1914469.6813586.5212704.2711819.64 10943.810063.559184.1738305.9737431.128
6556.3055686.9394814.4623943.763 3069.552203.098
River Rch & RM=Bald Eagle,Loc Hav         ,119473.8
37729.56999.01981141.6293414.698 6344.449216.74711855.22   14491 17157.819718.51
22267.84 24822.3 27398.8 29967.232487.6334991.9337389.6839671.3741796.85   43801
45693.2846812.97 45254.543687.1142261.1741270.1641289.9341324.9141256.9540978.53
40500.7540075.6639488.4638793.0238031.61 37234.336412.59 35569.234689.84 33797.4
   3295432084.2431262.2530367.8829473.51   2858027691.3526793.25 25909.625020.86
24132.0323259.15 22393.321523.4920641.1219769.3418889.44 18010.417128.79 16247.2
15364.8114481.6813598.5512716.6411832.06 10956.510076.659197.587 8319.487445.213
6570.6285701.1874829.202 3958.86 3085.542219.821
River Rch & RM=Bald Eagle,Loc Hav         ,118901.0
 37743.1998.91041121.1883361.5286287.7419167.47911811.1414452.2117126.3419688.02
22237.8624796.4327375.4729942.64 32457.134943.39 37301.839538.0541617.3443594.43
45466.9546570.0745011.43 43448.742026.4741055.7541124.8841206.1841173.1540923.92
40458.1540051.2339475.07 38786.538030.3537236.3736416.7635575.2434696.1233804.36
32962.1832092.9931273.5930378.9129484.3828590.9227702.4826803.6425920.5225032.18
24143.2823271.0922406.2721537.3920654.8119783.8518904.3718025.5417144.4116263.08
15380.5514498.0313614.9512733.5611849.2610973.8810094.769215.7058338.0867464.339
 6590.295720.9014850.0163980.2953107.6112243.024
River Rch & RM=Bald Eagle,Loc Hav         ,118300.5
37715.95998.95651104.1873284.9476234.0789118.82511770.5514410.7917095.59 19657.8
22208.5824768.0727351.7729916.2532418.8834867.28 37172.339354.6941392.1343342.34
45195.29 46282.144734.0243182.9341767.2540820.48 40946.641076.6441082.6940864.97
 40411.640024.6139460.7338779.43 38028.737238.6236421.2535581.6634702.9633811.91
32970.9732102.5131285.7430390.9329496.2928602.5527714.3126814.9425932.4725044.17
24155.6523283.9122420.2821552.15 20669.519799.4218920.3718041.7817161.49 16280.1
15398.1514515.5113632.6912751.8711867.9910992.9910114.239235.2818358.3227485.151
6611.4735742.5214872.916    40043131.7022268.264
River Rch & RM=Bald Eagle,Loc Hav         ,117753.9
37729.16 999.113 1086.64 3207.756197.5159077.47411739.4814377.5817066.4219629.11
22180.8224741.6427327.4929887.5332371.13   3477537022.9739161.3641172.2743099.82
44937.5346021.1544486.3642947.3241539.8140617.3540793.6140965.28 41005.140814.58
40371.8640001.9639448.4738773.6338026.9337240.6336424.8835587.1934708.7933818.46
32978.4732110.54 31296.230400.9729506.4328612.4727724.5826824.3825942.93 25054.1
24166.2323294.6922432.0321564.6720681.8719812.6918934.1518055.5517176.0616294.59
15413.2114530.5713648.0512767.5811883.9211009.2410130.839252.2238375.6787503.028
6629.7985761.2144892.2434024.214 3152.742290.214
River Rch & RM=Bald Eagle,Loc Hav         ,117180.8
37703.07999.28081072.4933138.192 6159.929035.21511700.7314341.5517033.6919596.42
22148.9324711.3527295.9529847.8532298.0834643.1836826.7638928.6640913.7542822.57
44644.9645730.8444213.7642689.7441294.1840399.83   4062940846.09   4092240760.66
40329.5139977.7739435.4538767.5338025.03 37242.436428.9135593.2134714.96 33825.5
32986.4532118.9931307.3430411.7329517.1928623.4427735.5426834.2325954.0825064.98
24177.3623306.1922444.3421577.7920694.9619827.1218949.0618070.7117191.3516310.22
15429.2414547.0213664.63 12784.211901.0411026.49 10148.6 9270.448394.3317521.991
6649.4285781.3134912.8584045.9753175.5052313.912
River Rch & RM=Bald Eagle,Loc Hav         ,116401.3
37741.27999.4307 1059.222999.3746082.9458964.09711627.8614276.8116983.6119545.08
22098.8124658.6227241.5729770.7332149.21 34386.736483.2338544.0740497.5142387.16
44193.2545282.12 43792.142290.6140912.5640060.54 40370.240657.8440790.68 40675.5
 40262.239939.7939414.9838757.9638022.4837244.6136435.5635602.0534724.8433836.39
32998.8532132.5131324.6130429.0829533.86 28640.827752.6826849.7525970.9925082.31
24194.83 23324.522464.4921598.8720715.7719849.9918972.2118094.6317215.4416335.11
15454.5514572.7313690.7312810.4411927.7411053.9310176.329298.9878423.475 7551.81
6679.7825813.0634945.5474080.323 3211.092350.749
River Rch & RM=Bald Eagle,Loc Hav         ,115584.2
 37689.2999.66931044.3432833.2665987.7618873.83611544.0114199.4216924.5119483.79
22039.8824596.9927173.9929665.8831949.5134071.4136092.3638120.3140036.9841904.84
43701.1344788.7943326.9841848.5440488.36 39681.640080.6940448.09 40643.440580.13
40186.7839896.9639391.6638747.17 38019.437247.5536442.9635612.2734735.7433848.63
33012.6732147.7431343.8430448.2929552.6728659.7227771.7326866.8925990.1625101.37
24214.3523345.3222487.0621622.6620739.21 19875.418998.13 18121.317242.6816362.72
15482.54 14600.913719.9112839.9111957.51 11084.910207.159331.3858456.2987585.177
6713.8895848.246 4982.144117.8713250.8652391.457
River Rch & RM=Bald Eagle,Loc Hav         ,114899.8
37702.31999.78251030.9732735.0545911.5678800.235 11482.914137.5216874.2119432.59
21992.2424546.2527112.9129561.7631763.0733801.6835776.5637774.6939655.9441500.87
43285.8344367.3342930.6441472.3540128.4139360.5139835.48 40271.840518.8740499.57
40122.9339860.4139371.9138737.6638016.9537250.45 36449.235621.1934744.8633859.05
33024.3332160.4531359.9330464.48   2956928675.9227787.9126881.3526006.9225117.58
24230.5823362.7822505.8221642.5920759.1319896.8919020.1918143.7817265.8716385.98
15506.1714624.8613744.1512864.4611982.5511110.6410233.569358.7598484.1217613.451
6743.0065878.1035012.7424149.1833284.1052425.973