Flow Title=Unsteady flow data
Version=Version 3.0.1  Mar 2001
Use Restart= 0 
Restart Filename=
Initial Flow Loc=Beaver Creek    ,Kentwood        ,5.99    ,5000
Initial Storage Elev=STo #1          ,205
Boundary Location=Beaver Creek    ,Kentwood        ,5.99    ,        ,                ,                
Interval=1HOUR
Flow Hydrograph= 100 
 5024.65 5098.34 5220.25 5389.05 5602.89 5859.42 6155.85 6488.91 6854.97    7250
 7669.69 8109.42  8564.4 9029.62    9500 9970.38 10435.610890.5811330.31   11750
12145.0312511.0912844.1513140.5813397.1113610.9513779.7513901.6613975.35   14000
13975.3513901.6613779.7513610.9513397.1113140.5812844.1512511.0912145.03   11750
11330.3110890.58 10435.6 9970.38 9727.97 9497.38 9278.04  9069.4 8870.94 8682.15
 8502.57 8331.74 8169.25 8014.69 7867.66  7727.8 7594.77 7468.22 7347.84 7233.33
 7124.41 7020.81 6922.25  6828.5 6739.32  6654.5 6573.81 6497.05 6424.04 6354.59
 6288.52 6225.68  6165.9 6109.04 6054.95  6003.5 5954.56 5908.01 5863.72  5821.6
 5781.53 5743.41 5707.16 5672.67 5639.86 5608.66 5578.97 5550.73 5523.87 5498.32
 5474.02  5450.9 5428.91 5407.99  5388.1 5369.17 5351.16 5334.04 5317.75 5302.25
DSS File=
DSS Path=
Use DSS=False
Use Fixed Start Time=False
Fixed Start Date/Time=,
Is Critical Boundary=False
Critical Boundary Flow=
Boundary Location=Beaver Creek    ,Kentwood        ,5.4     ,        ,                ,                
Gate Name=Gate #1     
Gate DSS File=
Gate DSS Path=
Gate Use DSS=False
Gate Time Interval=1HOUR
Gate Use Fixed Start Time=False
Gate Fixed Start Date/Time=,
Gate Openings= 100 
       1    1.02    1.04    1.06    1.08     1.1    1.12    1.14    1.16    1.18
     1.2    1.22    1.24    1.26    1.28     1.3    1.32    1.34    1.36    1.38
     1.4    1.42    1.44    1.46    1.48    1.51    1.53    1.55    1.57    1.59
    1.61    1.63    1.65    1.67    1.69    1.71    1.73    1.75    1.77    1.79
    1.81    1.83    1.85    1.87    1.89    1.91    1.93    1.95    1.97    1.99
    2.01    2.03    2.05    2.07    2.09    2.11    2.13    2.15    2.17    2.19
    2.21    2.23    2.25    2.27    2.29    2.31    2.33    2.35    2.37    2.39
    2.41    2.43    2.45    2.47    2.49    2.52    2.54    2.56    2.58     2.6
    2.62    2.64    2.66    2.68     2.7    2.72    2.74    2.76    2.78     2.8
    2.82    2.84    2.86    2.88     2.9    2.92    2.94    2.96    2.98       3
Boundary Location=Beaver Creek    ,Kentwood        ,5.0     ,        ,                ,                
Rating Curve= 16 
  204.14     200  206.09     500  207.26    1000  208.47    2000   209.3    3000
  209.83    4000  210.25    5000  210.68    6000  210.99    7000  211.27    8000
  211.53    9000  211.78   10000  212.02   11000  212.25   12000  212.47   13000
  212.68   14000
DSS File=
DSS Path=
Use DSS=False
Use Fixed Start Time=False
Fixed Start Date/Time=,
Is Critical Boundary=False
Critical Boundary Flow=
