Geom Title=Beaver Cr.  - Lateral
Program Version=5.00
Viewing Rectangle=-0.0472 , 0.9229 , 1.0786 ,-0.1742 

River Reach=Beaver Creek    ,Kentwood        
Reach XY= 19 
       0.1116468       0.9147431       0.1562375       0.8801709
       0.1916546       0.8452925       0.2186391       0.8169539
        0.240564       0.7886153        0.265862       0.7471973
       0.3058412       0.6950805       0.3373772        0.656989
       0.3737268       0.6130833       0.4167317       0.5589963
       0.4499728       0.5171891       0.4863997       0.4713752
       0.5728105       0.3626967       0.6097265       0.3162677
        0.659477       0.2536967       0.7149554       0.2051987
       0.7703907       0.1567384       0.8054645       0.1260777
       0.8465474       0.0901639
Rch Text X Y=0.1315114,0.5657992
Reverse River Text= 0 

Type RM Length L Ch R = 1 ,5.99    ,73.33,100,66.67
BEGIN DESCRIPTION:
Upstream Boundary Cross Section
END DESCRIPTION:
Node Last Edited Time=Apr/10/2000 14:08:28
#Sta/Elev= 35 
       0     221       7   220.3      36   216.6     131   216.6     233   216.8
     282   216.6     351   216.4     518   216.1     591   213.3     627   213.2
     692     209     709   212.7     719   209.4     738   204.9     751   210.8
     771   212.8     797   213.7     820   211.6     866   214.8     879     214
     899   210.2     932   209.9     948   216.6    1011   218.1    1063   218.7
    1093   219.1    1198   218.5    1283   218.2    1542   218.4    1565   218.1
    1772   218.1    1791   218.4    1831   218.9    1887   220.4    1910   220.8
#Mann= 4 ,-1 , 0 
       0      .1       0     518     .14       0     866     .04       0
     948     .14       0
Bank Sta=866,948
XS Rating Curve= 0 ,0
XS HTab Starting El and Incr=210.9,1.5, 0 
XS HTab Horizontal Distribution= 5 , 5 , 5 
Exp/Cntr=0.3,0.1

Type RM Length L Ch R = 1 ,5.97    ,73.33,100,66.67
Node Last Edited Time=Apr/10/2000 14:08:28
#Sta/Elev= 98 
       0  220.81    6.63  220.16    6.65  220.16   34.22  216.73   37.47  216.73
   91.44  216.58  124.44  216.51  124.51  216.51  199.38  216.49  221.43  216.53
  221.45  216.53  267.96  216.34  268.02  216.34  333.56  216.15  333.61  216.15
  492.33  215.86  492.36  215.86  561.71  213.28  561.75  213.28  595.93  213.19
  595.97  213.18  614.37  212.03  657.66  209.36  657.71  209.36  673.86  212.76
  673.89  212.75  683.36  209.74  683.37  209.74  701.43  205.62  701.48  205.64
  713.78  211.04  732.73  212.88  732.79  212.88  757.48  213.72   757.5  213.72
  779.36  211.81  779.39  211.81  823.08  214.77  836.18  213.93  856.33  210.28
  859.13  210.24  872.04  209.75  889.58  209.49  894.21  211.18  896.81   211.8
   899.4  212.32  902.82  213.31  913.28  215.88  914.67  216.28  979.28  217.72
  979.31  217.72 1007.32  218.04 1032.58   218.3 1032.61   218.3 1037.91  218.36
 1045.74  218.46 1055.96  218.58 1063.34  218.67 1063.37  218.67 1077.13   218.6
  1105.4  218.45 1123.45  218.36 1138.39  218.28 1171.03  218.14 1171.06  218.14
 1195.66  218.07 1226.25  217.94  1246.7  217.84 1254.52  217.46 1258.23  217.46
 1258.26  217.47 1262.35  217.49 1292.94  217.56 1331.44  217.98 1347.09  217.54
 1347.09   217.6 1370.66  217.62 1378.57  217.62  1457.8  217.81 1465.62  217.83
 1523.85  217.64 1523.87  217.64    1530  217.54 1547.43  217.63 1553.57  217.73
 1614.75   217.8  1632.8  217.76 1650.85  217.78 1759.69  217.96 1759.72  217.96
 1779.21  218.26 1779.25  218.26 1800.77  218.54 1820.23  218.78 1820.24  218.79
 1877.66  220.24 1877.69  220.24 1901.25  220.64
#Mann= 6 , 1 , 0 
       0      .1       0  492.33    .133       0  492.36    .103       0
  823.08     .04       0  914.67     .14       0 1901.25     .14       0
Bank Sta=823.08,914.67
XS Rating Curve= 0 ,0
XS HTab Starting El and Incr=210.49,1.5, 0 
XS HTab Horizontal Distribution= 5 , 5 , 5 
Exp/Cntr=0.3,0.1

Type RM Length L Ch R = 1 ,5.951   ,73.33,100,66.67
Node Last Edited Time=Apr/10/2000 14:08:28
#Sta/Elev= 98 
       0  220.62    6.28  220.02    6.31  220.02   32.43  216.86   35.51  216.85
   86.67  216.57  117.95  216.42  118.02  216.42  188.98  216.23  209.88  216.26
  209.91  216.26  253.99  216.08  254.05  216.08  316.17   215.9  316.21   215.9
  466.66  215.61  466.69  215.61  532.42  213.26  532.46  213.26  564.86  213.17
   564.9  213.17  582.34  212.12  623.36  209.72  623.41  209.72  638.73  212.82
  638.75  212.81  647.72  210.08  647.74  210.08  664.85  206.35   664.9  206.36
  676.56  211.28  694.52  212.96  694.58  212.97  717.98  213.74  718.01  213.74
  738.73  212.02  738.75  212.02  780.17  214.73  793.36  213.85  813.67  210.36
  816.48   210.3  829.49  209.45  847.17  209.08  853.47  211.23     857  211.77
  860.54  212.12   865.2  213.18  879.44  215.52  881.33  215.95  947.55  217.34
  947.59  217.34   976.3  217.66 1002.18   217.9 1002.21   217.9 1007.65  217.96
 1015.67  218.04 1026.15  218.15 1033.71  218.23 1033.74  218.23 1047.84  218.17
 1076.82  218.04 1095.32  217.95 1110.63  217.88 1144.08  217.77 1144.11  217.77
 1169.33  217.73 1200.68  217.57 1221.64  217.45 1229.66  216.71 1233.45  216.73
 1233.49  216.73 1237.68  216.77 1269.03  216.89 1308.49  217.71 1324.53   216.8
 1324.53  216.94 1348.68  216.95  1356.8  216.94    1438  217.26 1446.02   217.3
 1505.69  216.88 1505.71  216.88    1512  216.77 1529.87  217.15 1536.15  217.35
 1598.86   217.5 1617.36  217.42 1635.86  217.45 1747.41  217.81 1747.45  217.81
 1767.42  218.13 1767.46  218.13 1789.52  218.42 1809.46  218.67 1809.47  218.67
 1868.32  220.08 1868.35  220.08  1892.5  220.48
#Mann= 6 , 1 , 0 
       0      .1       0  466.66    .127       0  466.69    .107       0
  780.17     .04       0  881.33     .14       0  1892.5     .14       0
Bank Sta=780.17,881.33
XS Rating Curve= 0 ,0
XS HTab Starting El and Incr=210.08,1.5, 0 
XS HTab Horizontal Distribution= 5 , 5 , 5 
Exp/Cntr=0.3,0.1

Type RM Length L Ch R = 1 ,5.93    ,73.33,100,66.67
Node Last Edited Time=Apr/10/2000 14:08:28
#Sta/Elev= 98 
       0  220.43    5.94  219.88    5.96  219.87   30.65  216.99   33.56  216.98
    81.9  216.55  111.47  216.34  111.52  216.33  178.59  215.97  198.34  215.99
  198.36  215.99  240.02  215.83  240.07  215.82  298.78  215.65  298.82  215.65
  440.99  215.37  441.02  215.37  503.13  213.25  503.17  213.24  533.78  213.16
  533.82  213.15   550.3  212.21  589.07  210.08  589.12  210.08  603.59  212.87
  603.61  212.87  612.09  210.42   612.1  210.41  628.28  207.07  628.33  207.08
  639.35  211.51  656.32  213.05  656.37  213.05  678.49  213.76  678.51  213.76
  698.09  212.23  698.12  212.23  737.25   214.7  750.55  213.78     771  210.44
  773.84  210.36  786.95  209.14  804.75  208.67  812.73  211.28   817.2  211.74
  821.68  211.92  827.57  213.05  845.61  215.17     848  215.62  915.83  216.96
  915.87  216.96  945.27  217.29  971.79   217.5  971.82   217.5  977.39  217.55
   985.6  217.63  996.34  217.73 1004.09   217.8 1004.12   217.8 1018.56  217.74
 1048.24  217.62 1067.19  217.55 1082.88  217.49 1117.14  217.41 1117.17  217.41
    1143  217.39 1175.11  217.21 1196.58  217.05 1204.79  215.96 1208.68  215.99
 1208.72     216 1213.01  216.05 1245.12  216.22 1285.54  217.44 1301.98  216.07
 1301.98  216.27 1326.71  216.29 1335.02  216.27  1418.2  216.72 1426.41  216.77
 1487.54  216.12 1487.56  216.12    1494  215.99  1512.3  216.68 1518.74  216.98
 1582.97   217.2 1601.92  217.08 1620.87  217.12 1735.13  217.67 1735.17  217.67
 1755.63  217.99 1755.67  217.99 1778.26   218.3 1798.69  218.55 1798.71  218.56
 1858.99  219.92 1859.01  219.93 1883.75  220.33
#Mann= 6 , 1 , 0 
       0      .1       0  440.99     .12       0  441.02     .11       0
  737.25     .04       0     848     .14       0 1883.75     .14       0
Bank Sta=737.25,848
XS Rating Curve= 0 ,0
XS HTab Starting El and Incr=209.67,1.5, 0 
XS HTab Horizontal Distribution= 5 , 5 , 5 
Exp/Cntr=0.3,0.1

Type RM Length L Ch R = 1 ,5.913   ,73.33,100,66.67
Node Last Edited Time=Apr/10/2000 14:08:28
#Sta/Elev= 98 
       0  220.23    5.59  219.73    5.61  219.73   28.86  217.12   31.61   217.1
   77.14  216.53  104.98  216.25  105.03  216.25  168.19   215.7  186.79  215.72
  186.81  215.72  226.04  215.57   226.1  215.57  281.38   215.4  281.42   215.4
  415.32  215.13  415.34  215.13  473.85  213.23  473.88  213.23  502.71  213.14
  502.75  213.14  518.27   212.3  554.78  210.43  554.83  210.44  568.46  212.93
  568.47  212.93  576.46  210.75  576.47  210.75  591.71   207.8  591.75   207.8
  602.13  211.75  618.11  213.13  618.17  213.13  638.99  213.79  639.01  213.79
  657.45  212.43  657.48  212.43  694.33  214.67  707.73  213.71  728.33  210.52
  731.19  210.42   744.4  208.84  762.33  208.27  771.98  211.33   777.4  211.72
  782.82  211.71  789.95  212.93  811.77  214.82  814.67   215.3  884.11  216.58
  884.15  216.58  914.25  216.91  941.39   217.1  941.42   217.1  947.12  217.14
  955.53  217.22  966.53   217.3  974.46  217.37  974.49  217.37  989.27  217.31
 1019.66  217.21 1039.06  217.14 1055.12  217.09 1090.19  217.04 1090.22  217.04
 1116.66  217.05 1149.54  216.84 1171.52  216.66 1179.93  215.21 1183.91  215.26
 1183.94  215.26 1188.34  215.33 1221.22  215.55  1262.6  217.17 1279.42  215.34
 1279.42  215.61 1304.74  215.62 1313.25   215.6  1398.4  216.17 1406.81  216.24
 1469.38  215.36 1469.41  215.36    1476  215.21 1494.73   216.2 1501.33   216.6
 1567.08   216.9 1586.48  216.73 1605.88   216.8 1722.85  217.53 1722.89  217.53
 1743.84  217.85 1743.88  217.85 1767.01  218.17 1787.92  218.44 1787.94  218.44
 1849.65  219.77 1849.67  219.77    1875  220.17
#Mann= 6 , 1 , 0 
       0      .1       0  415.32    .113       0  415.34    .113       0
  694.33     .04       0  814.67     .14       0    1875     .14       0
Bank Sta=694.33,814.67
XS Rating Curve= 0 ,0
XS HTab Starting El and Incr=209.27,1.5, 0 
XS HTab Horizontal Distribution= 5 , 5 , 5 
Exp/Cntr=0.3,0.1

Type RM Length L Ch R = 1 ,5.894   ,73.33,100,66.67
Node Last Edited Time=Apr/10/2000 14:08:28
#Sta/Elev= 98 
       0  220.04    5.25  219.59    5.27  219.59   27.08  217.25   29.65  217.23
   72.37  216.52   98.49  216.16   98.54  216.16   157.8  215.44  175.25  215.45
  175.27  215.45  212.07  215.31  212.12  215.31  263.99  215.15  264.03  215.15
  389.65  214.88  389.67  214.88  444.56  213.21  444.59  213.21  471.64  213.13
  471.67  213.12  486.23  212.38  520.49  210.79  520.53   210.8  533.32  212.99
  533.34  212.99  540.83  211.09  540.84  211.09  555.13  208.52  555.18  208.52
  564.91  211.99  579.91  213.22  579.96  213.22   599.5  213.81  599.51  213.81
  616.81  212.64  616.84  212.64  651.42  214.63  664.91  213.63  685.67   210.6
  688.55  210.48  701.85  208.53  719.92  207.86  731.24  211.37   737.6  211.69
  743.96  211.51  752.32   212.8  777.94  214.46  781.33  214.97  852.38   216.2
  852.42   216.2  883.22  216.54     911   216.7  911.03   216.7  916.86  216.74
  925.47   216.8  936.71  216.88  944.83  216.93  944.86  216.93  959.99  216.89
  991.08  216.79 1010.93  216.74 1027.36  216.69 1063.25  216.68 1063.28  216.68
 1090.33   216.7 1123.97  216.47 1146.46  216.26 1155.06  214.46 1159.14  214.52
 1159.17  214.52 1163.67  214.62 1197.31  214.88 1239.65   216.9 1256.86  214.61
 1256.86  214.94 1282.77  214.96 1291.47  214.92  1378.6  215.63  1387.2  215.71
 1451.23   214.6 1451.25   214.6    1458  214.44 1477.17  215.73 1483.91  216.23
 1551.19   216.6 1571.04  216.39 1590.89  216.47 1710.58  217.38 1710.62  217.38
 1732.05  217.72 1732.09  217.72 1755.75  218.05 1777.16  218.32 1777.17  218.33
 1840.31  219.61 1840.34  219.61 1866.25  220.01
#Mann= 6 , 1 , 0 
       0      .1       0  389.65    .107       0  389.67    .117       0
  651.42     .04       0  781.33     .14       0 1866.25     .14       0
Bank Sta=651.42,781.33
XS Rating Curve= 0 ,0
XS HTab Starting El and Incr=208.86,1.5, 0 
XS HTab Horizontal Distribution= 5 , 5 , 5 
Exp/Cntr=0.3,0.1

Type RM Length L Ch R = 1 ,5.875   ,73.33,100,66.67
BEGIN DESCRIPTION:
River Mile 5.875
END DESCRIPTION:
Node Last Edited Time=Apr/10/2000 14:08:28
#Sta/Elev= 73 
       0  219.85     4.9  219.45    25.3  217.38    27.7  217.35    67.6   216.5
      92  216.07   147.4  215.18   163.7  215.18   198.1  215.05   246.6   214.9
     364  214.64   415.3  213.19   440.6  213.11   454.2  212.47   486.2  211.15
   498.2  213.05   505.2  211.43   518.6  209.24   527.7  212.23   541.7   213.3
     560  213.83   576.2  212.85   608.5   214.6   622.1  213.56     643  210.68
   645.9  210.54   659.3  208.23   677.5  207.45   690.5  211.42   697.8  211.66
   705.1  211.31   714.7  212.67   744.1  214.11     748  214.65   820.7  215.82
   852.2  216.16   880.6   216.3   886.6  216.33   895.4  216.39   906.9  216.45
   915.2   216.5   930.7  216.46   962.5  216.38   982.8  216.33   999.6  216.29
  1036.3  216.31    1064  216.36  1098.4   216.1  1121.4  215.87  1130.2  213.71
  1134.4  213.79    1139   213.9  1173.4  214.21  1216.7  216.63  1234.3  213.88
  1234.3  214.28  1260.8  214.29  1269.7  214.25  1358.8  215.08  1367.6  215.18
  1433.1  213.84    1440  213.66  1459.6  215.25  1466.5  215.85  1535.3   216.3
  1555.6  216.05  1575.9  216.15  1698.3  217.24  1720.3  217.58  1744.5  217.93
  1766.4  218.21    1831  219.45  1857.5  219.85
#Mann= 4 , 1 , 0 
       0      .1       0     364     .12       0   608.5     .04       0
     748     .14       0
Bank Sta=608.5,748
XS Rating Curve= 0 ,0
XS HTab Starting El and Incr=208.45,1.5, 0 
XS HTab Horizontal Distribution= 5 , 5 , 5 
Exp/Cntr=0.3,0.1

Type RM Length L Ch R = 1 ,5.855   ,73.33,100,66.67
Node Last Edited Time=Apr/10/2000 14:08:28
#Sta/Elev= 102 
       0  219.66    4.55  219.31   23.52  217.51   25.75  217.48   25.78  217.47
   62.83  216.48   62.84  216.48   85.51  215.98  136.96  214.92     137  214.92
  152.15  214.91  184.13  214.79  229.21  214.65  338.33   214.4  386.01  213.17
  409.53   213.1  422.17  212.56  451.91  211.51  463.06  213.11  469.57  211.77
  482.02  209.96  490.48  212.47  503.49  213.38   520.5  213.85  535.56  213.06
  565.58  214.57  579.28  213.49  600.33  210.76  603.23   210.6  603.25   210.6
  616.74  207.93  635.08  207.04  649.73  211.46  649.76  211.47     658  211.63
  666.24  211.11  666.28  211.11  677.08  212.54   677.1  212.54  710.21  213.76
  710.26  213.76  714.67  214.32  788.98  215.44  821.13  215.78  821.18  215.78
   850.2   215.9  856.31  215.92  856.34  215.93  865.33  215.98  877.07  216.02
  877.09  216.02  885.57  216.07  901.41  216.03  901.43  216.03   933.9  215.97
  933.92  215.97  954.66  215.93  954.67  215.93   971.8  215.89  971.84  215.89
 1009.35  215.95 1037.66  216.02 1072.83  215.73 1072.85  215.73  1096.3  215.48
 1096.34  215.47 1105.33  212.96 1109.63  213.06 1114.33  213.18 1114.35  213.18
 1149.49  213.54 1149.53  213.54 1193.74  216.36 1211.74  213.15 1211.74  213.49
 1211.79  213.48 1211.79  213.62 1238.83  213.62 1238.85  213.62 1247.88  213.58
 1247.93  213.58    1339  214.53    1348  214.65 1348.02  214.65 1414.95  213.08
    1422  212.88 1442.03  214.78 1449.07  215.47 1449.09  215.48 1519.41     216
 1519.44     216 1540.16  215.71 1540.19  215.71 1560.91  215.82 1560.94  215.83
 1686.02   217.1 1708.51  217.44 1733.25  217.81 1733.27  217.81 1755.63   218.1
 1821.66  219.29 1848.75  219.69
#Mann= 5 , 1 , 0 
       0      .1       0  338.33    .117       0  565.58     .04       0
  714.67     .14       0 1848.75     .14       0
Bank Sta=565.58,714.67
XS Rating Curve= 0 ,0
XS HTab Starting El and Incr=208.04,1.5, 0 
XS HTab Horizontal Distribution= 5 , 5 , 5 
Exp/Cntr=0.3,0.1

Type RM Length L Ch R = 1 ,5.836   ,73.33,100,66.67
Node Last Edited Time=Apr/10/2000 14:08:28
#Sta/Elev= 101 
       0  219.47    4.21  219.16   21.73  217.64   23.79   217.6   23.83   217.6
   58.06  216.47   79.02  215.89  126.57  214.65  126.61  214.65  140.61  214.64
  170.16  214.53  211.82   214.4  312.66  214.15  356.72  213.15  378.45  213.08
  390.13  212.65  417.62  211.86  427.93  213.17  433.94  212.11  445.45  210.69
  453.26  212.71  465.29  213.46  481.01  213.87  494.92  213.27  522.67  214.53
  536.46  213.42  557.67  210.84  560.58  210.66  560.61  210.66  574.19  207.62
  592.67  206.63  608.98  211.51  609.02  211.51   618.2  211.61  627.38  210.91
  627.42  210.91  639.45  212.41  639.48  212.41  676.37  213.41  676.43  213.41
  681.33     214  757.26  215.06   790.1  215.41  790.15  215.41  819.81   215.5
  826.05  215.52  826.08  215.52  835.27  215.56  847.25   215.6  847.27   215.6
  855.94  215.63  872.13  215.61  872.14  215.61  905.32  215.55  905.34  215.55
  926.52  215.52  926.54  215.52  944.04  215.49  944.08  215.49  982.41  215.58
 1011.33  215.67 1047.26  215.37 1047.28  215.37 1071.24  215.08 1071.28  215.07
 1080.46  212.21 1084.86  212.32 1089.66  212.47 1089.68  212.47 1125.58  212.87
 1125.63  212.87 1170.79  216.09 1189.18  212.42 1189.18  212.69 1189.23  212.69
 1189.23  212.95 1216.86  212.96 1216.88  212.96  1226.1   212.9 1226.15   212.9
  1319.2  213.99 1328.39  214.12 1328.42  214.12 1396.79  212.32    1404  212.11
 1424.47   214.3 1431.66   215.1 1431.67   215.1 1503.52   215.7 1503.55   215.7
 1524.72  215.37 1524.75  215.37 1545.92   215.5 1545.95   215.5 1673.75  216.95
 1696.72  217.31 1721.99  217.69 1722.01  217.69 1744.86  217.98 1812.33  219.13
    1840  219.53
#Mann= 5 , 1 , 0 
       0      .1       0  312.66    .113       0  522.67     .04       0
  681.33     .14       0    1840     .14       0
Bank Sta=522.67,681.33
XS Rating Curve= 0 ,0
XS HTab Starting El and Incr=207.63,1.5, 0 
XS HTab Horizontal Distribution= 5 , 5 , 5 
Exp/Cntr=0.3,0.1

Type RM Length L Ch R = 1 ,5.81    ,73.33,100,66.67
Node Last Edited Time=Apr/10/2000 14:08:28
#Sta/Elev= 102 
       0  219.27    3.86  219.02   19.95  217.77   21.84  217.73   21.87  217.72
    53.3  216.45   72.53  215.81  116.18  214.39  116.21  214.39  129.06  214.37
  156.18  214.28  194.42  214.15  286.98  213.91  327.43  213.13  347.38  213.07
   358.1  212.74  383.33  212.22  392.79  213.22  398.31  212.45  408.87  211.41
  416.05  212.95  427.08  213.55  441.51  213.89  454.28  213.48  479.75   214.5
  493.65  213.34     515  210.92  517.94  210.72  517.96  210.72  531.65  207.32
  550.25  206.23  568.24  211.56  568.27  211.56   578.4  211.58  588.52  210.71
  588.57  210.71  601.83  212.28  601.86  212.29  642.53  213.05  642.59  213.06
     648  213.67  725.53  214.68  759.08  215.03  759.13  215.03  789.41   215.1
  795.79  215.11  795.81  215.11   805.2  215.14  817.44  215.17  817.46  215.17
  826.31   215.2  842.84  215.18  842.85  215.18  876.74  215.14  876.76  215.14
  898.39  215.12  898.41  215.11  916.28   215.1  916.32   215.1  955.46  215.22
     985  215.33 1021.69     215 1021.71     215 1046.18  214.69 1046.22  214.68
  1055.6  211.46 1055.61  211.46 1060.08  211.59 1064.99  211.75 1065.01  211.75
 1101.68   212.2 1101.72  212.21 1147.85  215.81 1166.62   211.7 1166.62   211.9
 1166.67  211.89 1166.67  212.29 1194.89  212.29 1194.91  212.29 1204.33  212.23
 1204.38  212.23  1299.4  213.44 1308.79  213.59 1308.81  213.59 1378.64  211.56
    1386  211.33  1406.9  213.83 1414.24  214.72 1414.26  214.73 1487.63   215.4
 1487.67   215.4 1509.28  215.03 1509.32  215.03 1530.93  215.17 1530.97  215.18
 1661.47  216.81 1684.93  217.17 1710.74  217.56 1710.76  217.57 1734.09  217.87
 1802.99  218.98 1831.25  219.38
#Mann= 5 , 1 , 0 
       0      .1       0  286.98     .11       0  479.75     .04       0
     648     .14       0 1831.25     .14       0
Bank Sta=479.75,648
XS Rating Curve= 0 ,0
XS HTab Starting El and Incr=207.23,1.5, 0 
XS HTab Horizontal Distribution= 5 , 5 , 5 
Exp/Cntr=0.3,0.1

Type RM Length L Ch R = 1 ,5.798   ,73.33,100,66.67
Node Last Edited Time=Apr/10/2000 14:08:28
#Sta/Elev= 102 
       0  219.08    3.52  218.88   18.16   217.9   19.89  217.85   19.91  217.85
   48.53  216.43   66.05  215.72  105.79  214.13  105.82  214.13  117.52  214.11
  142.21  214.02  177.03   213.9  261.31  213.66  298.14  213.11   316.3  213.05
  326.06  212.82  349.04  212.58  357.65  213.28  362.68  212.79   372.3  212.14
  378.83  213.19  388.88  213.63  402.02  213.92  413.65  213.69  436.83  214.47
  450.83  213.27  472.33  211.01  475.29  210.78  475.32  210.77   489.1  207.01
  507.83  205.82  527.49   211.6  527.53  211.61   538.6  211.55  549.66  210.51
  549.71  210.51   564.2  212.15  564.24  212.16  608.68   212.7  608.76  212.71
  614.67  213.35  693.81   214.3  728.05  214.65   728.1  214.65  759.02   214.7
  765.53  214.71  765.55  214.71  775.13  214.73  787.63  214.75  787.65  214.75
  796.69  214.77  813.56  214.75  813.57  214.75  848.16  214.73  848.18  214.73
  870.26  214.71  870.28  214.71  888.52   214.7  888.57   214.7  928.52  214.86
  958.66  214.99  996.12  214.63  996.14  214.63 1021.12  214.29 1021.16  214.28
 1030.73   210.7 1030.74   210.7 1035.31  210.86 1040.32  211.03 1040.34  211.03
 1077.77  211.54 1077.81  211.54  1124.9  215.54 1144.07  210.97 1144.07   211.1
 1144.11  211.09 1144.11  211.63 1172.92  211.63 1172.94  211.63 1182.55  211.55
  1182.6  211.55  1279.6  212.89 1289.18  213.06 1289.21  213.06 1360.49   210.8
    1368  210.55 1389.33  213.35 1396.83  214.35 1396.85  214.35 1471.74   215.1
 1471.78   215.1 1493.84  214.68 1493.88  214.68 1515.94  214.85 1515.98  214.85
 1649.19  216.67 1673.14  217.04 1699.48  217.44 1699.51  217.44 1723.33  217.76
 1793.65  218.82  1822.5  219.22
#Mann= 5 , 1 , 0 
       0      .1       0  261.31    .107       0  436.83     .04       0
  614.67     .14       0  1822.5     .14       0
Bank Sta=436.83,614.67
XS Rating Curve= 0 ,0
XS HTab Starting El and Incr=206.82,1.5, 0 
XS HTab Horizontal Distribution= 5 , 5 , 5 
Exp/Cntr=0.3,0.1

Type RM Length L Ch R = 1 ,5.779   ,73.33,100,66.67
Node Last Edited Time=Apr/10/2000 14:08:28
#Sta/Elev= 103 
       0  218.89    3.17  218.74   16.38  218.02   17.93  217.98   17.96  217.97
   43.76  216.42   59.56  215.63   95.39  213.86   95.42  213.86  105.97  213.84
  128.24  213.76  159.64  213.65  235.64  213.42  268.85   213.1  285.23  213.04
  294.03  212.91  314.74  212.93  322.51  213.34  327.04  213.12  335.72  212.86
  341.61  213.43  350.67  213.71  362.52  213.94  373.01   213.9  393.92  214.43
  408.01   213.2  429.67  211.09  432.65  210.84  432.67  210.83  446.55  206.71
  465.42  205.41  486.75  211.65  486.79  211.65  498.79  211.53   510.8  210.31
  510.86   210.3  526.58  212.02  526.62  212.03  574.84  212.35  574.92  212.36
  581.33  213.02  662.09  213.92  697.03  214.28  697.08  214.28  728.62   214.3
  735.26   214.3  735.29   214.3  745.06  214.31  757.81  214.32  757.84  214.32
  767.06  214.33  784.27  214.33  784.28  214.33  819.58  214.31   819.6  214.31
  842.13   214.3  842.15   214.3  860.76   214.3  860.81   214.3  901.57  214.49
  932.33  214.64  970.55  214.27  970.57  214.27  996.06   213.9   996.1  213.88
 1005.87  209.95 1005.88  209.95 1010.54  210.12 1015.65  210.32 1015.67  210.32
 1053.86  210.87 1053.91  210.87 1101.95  215.27 1101.96  215.27 1121.51  210.24
 1121.51  210.31 1121.56   210.3 1121.56  210.96 1150.94  210.96 1150.97  210.96
 1160.78  210.88 1160.83  210.88  1259.8  212.35 1269.58  212.53  1269.6  212.53
 1342.33  210.05    1350  209.78 1371.77  212.88 1379.41  213.97 1379.43  213.98
 1455.85   214.8 1455.89   214.8  1478.4  214.34 1478.44  214.34 1500.95  214.52
 1500.99  214.53 1636.91  216.52 1661.35   216.9 1688.23  217.32 1688.25  217.32
 1712.56  217.64 1784.31  218.66 1813.75  219.06
#Mann= 5 , 1 , 0 
       0      .1       0  235.64    .103       0  393.92     .04       0
  581.33     .14       0 1813.75     .14       0
Bank Sta=393.92,581.33
XS Rating Curve= 0 ,0
XS HTab Starting El and Incr=206.41,1.5, 0 
XS HTab Horizontal Distribution= 5 , 5 , 5 
Exp/Cntr=0.3,0.1

Type RM Length L Ch R = 1 ,5.76    ,56.25,100,68.75
BEGIN DESCRIPTION:
River Mile 5.76
END DESCRIPTION:
Node Last Edited Time=Apr/10/2000 14:08:28
#Sta/Elev= 43 
       0   218.7      16   218.1      39   216.4      85   213.6     262     213
     351   214.4     390   210.9     404   206.4     423     205     446   211.7
     459   211.5     472   210.1     489   211.9     541     212     548   212.7
     666   213.9     705   213.9     715   213.9     728   213.9     755   213.9
     791   213.9     814   213.9     833   213.9     906   214.3     945   213.9
     971   213.5     981   209.2     991   209.6    1030   210.2    1079     215
    1099   209.5    1099   210.3    1129   210.3    1139   210.2    1240   211.8
    1250     212    1332     209    1362   213.6    1440   214.5    1463     214
    1486   214.2    1677   217.2    1805   218.9
#Mann= 3 , 1 , 0 
       0      .1       0     351     .04       0     548     .14       0
Bank Sta=351,548
XS Rating Curve= 0 ,0
XS HTab Starting El and Incr=206,1.5, 0 
XS HTab Horizontal Distribution= 5 , 5 , 5 
Exp/Cntr=0.3,0.1

Type RM Length L Ch R = 1 ,5.741   ,56.25,100,68.75
Node Last Edited Time=Apr/10/2000 14:08:28
#Sta/Elev= 103 
       0  218.68   18.72  218.09   18.73  218.09   40.57  216.81   45.65   216.5
   99.01  213.76    99.5  213.74  233.65  213.05  242.07   212.7     250  212.53
  256.41     213  306.69  212.81  306.71  212.81  313.32  212.88   358.9  213.26
  410.88  213.77  445.47  210.63  457.89  206.67  457.93  206.66  474.75   205.4
  474.75  204.93  495.38  210.79   495.4   210.8  504.03  210.67  507.06  210.64
  507.08  210.64  518.74  209.46  518.75  209.46  534.02   211.1  534.06   211.1
  567.43   211.3  580.71  211.59  580.78  211.59     587  212.32  644.82  212.78
  669.02  213.02  682.71  212.91  700.59  213.12  704.16  213.16  704.18  213.16
  738.38  213.25  738.38  213.54  742.88  213.55  742.91  213.55  752.84  213.58
  752.89  213.58  765.75  213.62  765.76  213.62  792.52   213.7  792.56  213.71
  828.27  213.82  828.31  213.82  851.15  213.89  855.14   213.9  870.02  213.89
  870.05  213.89  935.12  214.18  942.48  214.21  942.51  214.21  981.19  213.86
  981.24  213.85 1007.03   213.5 1007.06   213.5 1016.94  209.75 1016.99  209.74
 1026.92  210.08 1026.95  210.08 1065.64   210.6 1065.67   210.6 1075.98  211.49
 1114.29  214.79  1114.3  214.79 1134.16  209.98 1134.16  210.58 1134.21  210.58
 1134.21  210.68 1159.03  210.68 1163.93  210.68 1163.96  210.68 1173.84   210.6
 1173.89   210.6 1263.22  211.92 1274.15  212.08 1274.18  212.08 1284.11  212.26
 1284.16  212.26 1365.54   209.7 1365.57   209.7  1395.3  213.74 1395.33  213.75
 1438.81  214.22 1472.79  214.59 1472.83  214.59 1495.61  214.17 1495.63  214.17
 1518.47  214.37 1518.49  214.37 1587.03  215.37 1694.29  216.96 1708.14  217.17
 1708.18  217.17 1815.23  218.58 1835.25  218.85
#Mann= 5 , 1 , 0 
       0    .098       0  256.41    .093       0  410.88     .04       0
     587     .13       0 1835.25     .13       0
Bank Sta=410.88,587
XS Rating Curve= 0 ,0
XS HTab Starting El and Incr=205.93,1.5, 0 
XS HTab Horizontal Distribution= 5 , 5 , 5 
Exp/Cntr=0.3,0.1

Type RM Length L Ch R = 1 ,5.72    ,56.25,100,68.75
Node Last Edited Time=Apr/10/2000 14:08:28
#Sta/Elev= 103 
       0  218.65   21.44  218.08   21.46  218.07   46.48  216.89    52.3  216.59
  113.44  213.89     114  213.87   267.7  212.89  277.35  212.21  286.44   211.9
  293.77  212.86  351.39  212.62  351.41  212.62  358.98  212.66   411.2  212.83
  470.75  213.15  500.95  210.36  511.79  206.93  511.82  206.93   526.5   205.8
   526.5  204.85  544.79  209.89  544.81  209.89  552.45  209.79  555.14  209.78
  555.16  209.77  565.49  208.82   565.5  208.82  579.04   210.3  579.07   210.3
  608.65  210.63  620.43  211.17  620.49  211.18     626  211.95  683.41  212.27
  707.45  212.51  721.04  212.14  738.79  212.37  742.34  212.42  742.36  212.42
  776.32   212.6  776.32  213.17  780.79   213.2  780.81  213.21  790.68  213.26
  790.73  213.26  803.49  213.34  803.51  213.35  830.08  213.51  830.12  213.51
  865.58  213.74  865.62  213.74   888.3  213.87  892.26   213.9  907.03  213.89
  907.07  213.89  971.68  214.09  978.98  214.12  979.02  214.12 1017.43  213.81
 1017.47  213.81 1043.09   213.5 1043.11   213.5 1052.93  210.28 1052.97  210.27
 1062.83  210.56 1062.87  210.57 1101.29     211 1101.31  211.01 1111.56  211.76
 1149.59  214.59 1149.61  214.59 1169.33  210.46 1169.33  210.86 1169.37  210.86
 1169.37  211.05 1194.02  211.05 1198.89  211.06 1198.91  211.06 1208.73     211
 1208.77     211 1297.48  212.22 1308.33  212.36 1308.37  212.37 1318.23  212.53
 1318.27  212.53 1399.09   210.4 1399.12   210.4 1428.63  213.89 1428.67  213.89
 1471.84  214.33 1505.58  214.68 1505.62  214.68 1528.24  214.35 1528.26  214.35
 1550.94  214.53 1550.96  214.54 1619.02  215.46 1725.52  216.94 1739.28  217.14
 1739.32  217.14 1845.62  218.53  1865.5   218.8
#Mann= 5 , 1 , 0 
       0    .095       0  293.77    .095       0  470.75     .04       0
     626     .12       0  1865.5     .12       0
Bank Sta=470.75,626
XS Rating Curve= 0 ,0
XS HTab Starting El and Incr=205.85,1.5, 0 
XS HTab Horizontal Distribution= 5 , 5 , 5 
Exp/Cntr=0.3,0.1

Type RM Length L Ch R = 1 ,5.703   ,56.25,100,68.75
Node Last Edited Time=Apr/10/2000 14:08:28
#Sta/Elev= 102 
       0  218.62   24.17  218.06   24.19  218.06   52.39  216.98   58.95  216.69
  127.87  214.03   128.5  214.01  301.75  212.72  312.62  211.73  322.87  211.26
  331.14  212.71  396.08  212.43   396.1  212.43  404.64  212.45   463.5  212.39
  530.62  212.52  556.42  210.09  565.68   207.2  565.71  207.19  578.25   206.2
  578.25  204.77  594.19  208.99  594.21  208.99  600.88  208.91  603.22  208.91
  603.23  208.91  612.25  208.18  624.05   209.5  624.09   209.5  649.88  209.96
  660.14  210.76  660.19  210.76     665  211.57  722.01  211.76  745.88  211.99
  759.37  211.36     777  211.63  780.52  211.68  780.54  211.68  814.26  211.95
  814.26  212.81  818.69  212.86  818.72  212.86  828.51  212.95  828.56  212.95
  841.24  213.07  841.25  213.07  867.64  213.32  867.68  213.32  902.89  213.65