Flow Title=Unsteady flow data
Version=Version 3.1 Beta  Mar 2002
Use Restart= 0 
Initial Flow Loc=Beaver Creek    ,Kentwood        ,5.99    ,5000
Initial Storage Elev=STo #1          ,205
Boundary Location=Beaver Creek    ,Kentwood        ,5.99    ,        ,                ,                
Interval=1HOUR
Flow Hydrograph= 100 
 5024.65 5098.34 5220.25 5389.05 5602.89 5859.42 6155.85 6488.91 6854.97    7250
 7669.69 8109.42  8564.4 9029.62    9500 9970.38 10435.610890.5811330.31   11750
12145.0312511.0912844.1513140.5813397.1113610.9513779.7513901.6613975.35   14000
13975.3513901.6613779.7513610.9513397.1113140.5812844.1512511.0912145.03   11750
11330.3110890.58 10435.6 9970.38    9500 9029.62  8564.4 8109.42 7669.69    7250
 6854.97 6488.91 6155.85 5859.42 5602.89 5389.05 5220.25 5098.34 5024.65    5000
    5000    5000    5000    5000    5000    5000    5000    5000    5000    5000
    5000    5000    5000    5000    5000    5000    5000    5000    5000    5000
    5000    5000    5000    5000    5000    5000    5000    5000    5000    5000
    5000    5000    5000    5000    5000    5000    5000    5000    5000    5000
DSS Path=
Use DSS=False
CWMS InputPosition= 0 
Use Fixed Start Time=False
Fixed Start Date/Time=,
Is Critical Boundary=False
Critical Boundary Flow=
Boundary Location=Beaver Creek    ,Kentwood        ,5.4     ,        ,                ,                
Gate Name=Gate #2     
Gate DSS Path=
Gate Use DSS=False
Gate Time Interval=1HOUR
Gate Use Fixed Start Time=False
Gate Fixed Start Date/Time=,
Gate Openings= 100 
       2    2.02    2.04    2.06    2.08     2.1    2.12    2.14    2.16    2.18
     2.2    2.22    2.24    2.26    2.28     2.3    2.32    2.34    2.36    2.38
     2.4    2.42    2.44    2.46    2.48    2.51    2.53    2.55    2.57    2.59
    2.61    2.63    2.65    2.67    2.69    2.71    2.73    2.75    2.77    2.79
    2.81    2.83    2.85    2.87    2.89    2.91    2.93    2.95    2.97    2.99
    3.01    3.03    3.05    3.07    3.09    3.11    3.13    3.15    3.17    3.19
    3.21    3.23    3.25    3.27    3.29    3.31    3.33    3.35    3.37    3.39
    3.41    3.43    3.45    3.47    3.49    3.52    3.54    3.56    3.58     3.6
    3.62    3.64    3.66    3.68     3.7    3.72    3.74    3.76    3.78     3.8
    3.82    3.84    3.86    3.88     3.9    3.92    3.94    3.96    3.98       4
Gate Name=Gate #1     
Gate DSS Path=
Gate Use DSS=False
Gate Time Interval=1HOUR
Gate Use Fixed Start Time=False
Gate Fixed Start Date/Time=,
Gate Openings= 100 
       1    1.02    1.04    1.06    1.08     1.1    1.12    1.14    1.16    1.18
     1.2    1.22    1.24    1.26    1.28     1.3    1.32    1.34    1.36    1.38
     1.4    1.42    1.44    1.46    1.48    1.51    1.53    1.55    1.57    1.59
    1.61    1.63    1.65    1.67    1.69    1.71    1.73    1.75    1.77    1.79
    1.81    1.83    1.85    1.87    1.89    1.91    1.93    1.95    1.97    1.99
    2.01    2.03    2.05    2.07    2.09    2.11    2.13    2.15    2.17    2.19
    2.21    2.23    2.25    2.27    2.29    2.31    2.33    2.35    2.37    2.39
    2.41    2.43    2.45    2.47    2.49    2.52    2.54    2.56    2.58     2.6
    2.62    2.64    2.66    2.68     2.7    2.72    2.74    2.76    2.78     2.8
    2.82    2.84    2.86    2.88     2.9    2.92    2.94    2.96    2.98       3
Boundary Location=Beaver Creek    ,Kentwood        ,5.0     ,        ,                ,                
Interval=1HOUR
Rating Curve= 20 
  204.14     200  206.09     500  207.26    1000  208.47    2000   209.3    3000
  209.83    4000  210.25    5000  210.68    6000  210.99    7000  211.27    8000
  211.53    9000  211.78   10000  212.02   11000  212.25   12000  212.47   13000
  212.68   14000     213   16000     214   21000     215   26000     216   30000
DSS Path=
Use DSS=False
CWMS InputPosition= 0 
Use Fixed Start Time=False
Fixed Start Date/Time=,
Is Critical Boundary=False
Critical Boundary Flow=
