Proj Title=Multiple Reach Data Set
Current Plan=p03
Default Exp/Contr=0.3,0.1
English Units
Geom File=g01
Geom File=g02
Geom File=g03
Geom File=g04
Flow File=f03
Flow File=f01
Unsteady File=u01
Unsteady File=u02
Plan File=p01
Plan File=p02
Plan File=p04
Plan File=p03
Y Axis Title=Elevation
X Axis Title(PF)=Main Channel Distance
X Axis Title(XS)=Station
DSS Caption Additional Text=Jensen
BEGIN DESCRIPTION:

END DESCRIPTION:
DSS Start Date=09/03/1998
DSS Start Time=0000
DSS End Date=09/05/1998
DSS End Time=2400
DSS File=dss
DSS Export Filename=
DSS Export Rating Curves= 0 
DSS Export Rating Curve Sorted= 0 
DSS Export Volume Flow Curves= 0 
DXF Filename=..\Unsteady Examples\3ReachUnsteady.
DXF OffsetX= 0 
DXF OffsetY= 0 
DXF ScaleX= 1 
DXF ScaleY= 10 
GIS Export Profiles= 0 
