Geom Title=Existing Conditions - GIS Data
Program Version=3.10
Viewing Rectangle= 1966632.2513 , 2066299.3787 , 354099.6713 , 287473.1387 

River Reach=Bald Eagle      ,Loc Hav         
Reach XY= 591 
      1967609.38       288126.34      1967754.63       288503.16
      1967887.75       288748.22      1968046.13       288854.22
      1968212.75       288931.56      1968349.63       289175.53
      1968438.88       289365.91      1968557.88       289586.06
      1968694.25       289787.38       1968844.5       289995.66
      1968967.38       290098.09      1969086.88       290166.41
        1969162.       290296.16      1969192.75       290425.91
      1969199.63       290569.31        1969203.       290709.31
       1969182.5       290866.38       1969141.5       291078.06
        1969121.       291282.94      1969110.75       291508.31
      1969056.75       291708.31       1969029.5       291959.75
      1969008.38       292108.22      1968962.88       292232.44
      1968896.25       292305.16      1968838.63       292411.19
      1968829.63       292499.03       1968826.5       292583.88
      1968853.75       292671.72      1968887.13       292762.63
      1968953.75       292877.75      1969011.38       292968.63
        1969081.       293086.78      1969168.88       293198.91
      1969244.63       293277.66      1969396.13       293371.59
      1969544.75       293425.75      1969683.88       293489.75
      1969795.25       293605.66       1969903.5       293718.47
      1970005.13       293801.78        1970096.        293977.5
      1970171.75       294098.69      1970244.38       294195.66
      1970323.25       294256.25      1970426.25       294428.94
      1970529.25       294541.03      1970629.13       294586.47
      1970698.88        294692.5      1970774.63       294798.56
      1970889.75       294943.97      1971001.88       295025.78
      1971307.88       295183.31      1971598.63       295298.44
       1971886.5       295389.34      1972110.75       295474.16
      1972353.13       295580.22      1972592.38       295643.84
      1972765.13       295643.84       1972907.5       295619.59
      1973119.63       295555.97      1973325.63       295474.16
        1973474.       295316.63      1973580.13       295134.84
      1973610.38       295059.09      1973631.63       294977.31
       1973722.5        294895.5      1973846.75       294798.56
      1973943.63         294741.      1974113.25       294571.34
      1974313.25       294380.47      1974573.75       294280.47
      1974834.38       294250.19      1975010.13       294253.22
       1975155.5       294286.53        1975313.       294353.19
      1975428.13       294392.59       1975564.5       294416.81
      1975682.63       294404.69      1975861.38       294368.34
        1976025.       294310.78      1976185.63       294265.34
       1976376.5       294241.09       1976582.5       294225.94
       1976794.5       294256.25      1976952.13       294304.72
      1977109.38         294378.      1977288.38       294447.13
      1977421.75       294483.47      1977567.13         294538.
        1977661.        294589.5      1977745.88       294671.31
      1977745.88       294671.31      1977839.75       294798.56
      1977945.88       294898.53      1978031.25       295012.78
      1978142.75       295165.16      1978248.75       295310.56
        1978367.       295462.06      1978497.25       295589.28
      1978648.75       295704.44      1978800.13       295822.59
      1978957.75       295977.09      1979051.63       296125.53
      1979100.13       296252.78      1979166.75       296346.72
        1979316.       296474.78      1979463.63       296595.16
      1979618.25        296734.5      1979742.38       296876.91
      1979890.88       297019.28      1979988.38       297130.53
      1980048.38       297231.38      1980133.25       297358.63
      1980221.13       297461.63        1980312.       297625.22
       1980363.5       297764.59      1980475.63       297973.63
      1980633.13       298173.59      1980814.88       298343.25
      1980993.63       298540.19        1981124.       298697.72
      1981239.13       298840.13        1981350.       298953.53
        1981439.       299118.84      1981502.63       299230.94
       1981593.5       299318.81       1981687.5       299400.63
      1981802.63       299482.41      1981926.75         299543.
      1982038.88       299579.38      1982111.63       299609.66
      1982163.13       299673.28      1982217.63       299742.97
        1982357.       299915.66      1982504.13       300134.72
       1982614.5         300361.       1982717.5       300560.97
      1982902.38         300767.        1983072.       300994.22
      1983247.75       301230.53      1983420.38       301436.53
        1983581.       301591.06        1983781.       301766.78
      1983968.75       301936.44      1984150.63       302115.19
        1984302.       302312.13      1984480.75         302503.
       1984653.5       302651.44      1985083.75       302918.06
      1985294.88       303100.13        1985438.       303262.31
      1985555.63       303383.19      1985657.38       303554.91
      1985762.38       303666.22      1985962.75       303828.44
      1986159.38       303936.78      1986274.38       303981.09
      1986420.75       304003.34      1986579.75       304028.81
      1986713.38       304073.31       1986840.5       304127.38
      1986993.25       304206.91      1987168.88       304317.63
      1987387.63       304466.69      1987575.25       304610.81
        1987793.       304801.97       1988057.5       305034.19
      1988316.88       305261.78      1988580.25       305490.38
        1988692.       305602.19      1988884.88       305790.94
      1989040.88         305954.        1989232.        306155.5
      1989395.25       306330.22      1989545.75       306506.69
       1989729.5       306703.44      1989844.38       306841.22
      1989947.75       306967.53        1990074.       307093.88
      1990177.38       307208.69      1990292.25        307346.5
      1990395.63       307449.84      1990544.88       307599.13
      1990648.25        307702.5       1990774.5       307828.81
      1990877.88       307978.09      1991015.63       308138.88
      1991084.63       308288.16       1991130.5       308425.94
      1991233.88       308667.09      1991302.75       308896.78
       1991351.5       309156.53       1991357.5       309410.59
      1991384.75       309599.34      1991428.25       309771.75
      1991487.63       309898.47      1991581.13        309991.5
      1991674.75       310071.75       1991766.5       310178.78
       1991852.5       310290.06      1991902.63       310428.63
       1991957.5       310593.44      1992019.63       310760.63
      1992057.88       310882.47       1992086.5       311073.53
      1992141.75       311249.31      1992220.25       311477.22
        1992335.       311704.16      1992397.13       311823.56
      1992553.88       312045.56      1992701.25       312256.28
      1992858.63       312472.09      1993082.63       312612.41
       1993324.5       312722.91      1993593.13       312815.44
      1993863.38       312851.28      1994132.13       312896.06
       1994404.5       312918.47      1994680.75       312847.56
      1995012.88       312593.75      1995444.75       312349.16
      1995867.63       312130.97      1996359.88       311991.69
      1996733.88       311885.91      1997017.13       311839.84
      1997267.13       311817.47        1997506.         311810.
        1997786.       311851.03        1998062.       311907.94
      1998312.25       311996.59      1998621.63       312165.69
      1999022.63       312431.31      1999428.88         312723.
      1999829.88       313019.88      2000137.25       313280.28
       2000444.5       313545.91      2000725.75       313858.41
      2001001.75       314316.75      2001246.63       314806.31
      2001496.63       315243.81      2001803.88       315634.44
      2002228.63       316000.81      2002449.75       316259.44
      2002600.75        316535.5      2002814.25       316931.31
       2003095.5       317316.75        2003408.       317728.19
       2003720.5         318098.      2004053.88       318467.78
      2004435.88       318820.22      2004785.63       319165.69
        2005149.       319508.88      2005536.13       319931.09
      2005852.13       320223.84      2006230.63       320574.34
      2006609.38       320925.22      2006899.25       321193.72
        2007442.       321601.19        2007546.       321679.84
      2007794.63       321887.84       2007907.5       321978.31
      2008017.75       322065.38       2008123.5       322131.13
      2008319.63       322202.38      2008476.88       322202.38
      2008631.63       322265.78       2008758.5       322400.22
      2008880.25       322557.47      2009005.25       322691.81
      2009169.38       322806.06       2009321.5       322873.94
      2009448.38       322930.34      2009674.13         322976.
      2009793.38       323036.88        2009887.       323118.34
      2010057.25       323328.59      2010203.25       323463.38
      2010371.75       323592.41      2010514.75       323736.53
      2010653.25       323942.44      2010749.63        324129.5
      2010833.38       324330.53      2010888.63       324508.09
      2010939.88       324703.41      2010998.25       324840.38
      2011079.38       324951.97      2011140.25       325012.88
       2011186.5       325126.81       2011221.5       325213.25
      2011277.25       325307.09      2011439.63       325459.28
      2011584.25       325621.63       2011779.5        325786.5
      2011957.13       325938.72      2012165.13       326111.19
        2012330.       326268.47      2012522.75       326407.97
      2012710.38       326491.66      2012847.38       326524.66
      2012976.38       326562.06      2013090.88       326585.53
        2013233.       326661.63      2013361.38       326750.88
      2013447.63       326861.09      2013605.88       326943.19
      2013760.63       327047.19      2013869.38       327086.34
        2013999.       327062.41      2014104.25        326990.5
        2014245.       326872.16      2014364.25       326732.66
      2014470.75       326646.41      2014549.38       326610.88
      2014666.13       326595.66      2014836.13       326585.53
      2014980.63       326585.53      2015145.75       326535.56
      2015312.88       326461.22       2015551.5       326391.47
      2015728.88       326316.66      2015896.38       326189.81
       2016010.5       326057.91      2016099.25       325971.69
        2016429.       325857.53      2016659.88       325776.38
      2016799.38       325740.84      2016900.88       325756.06
      2017013.13       325792.44        2017200.       325921.81
       2017395.5       326123.88      2017583.38       326357.91
      2017798.75       326631.19      2018072.75       326869.63
        2018301.       327042.09      2018526.13       327205.31
      2018737.25       327338.88      2019046.75       327513.91
      2019452.75       327787.59      2019802.63       328107.47
       2020166.5       328480.91      2020479.88         328909.
      2020726.63       329289.69      2020949.13       329667.44
      2021121.63       329981.97      2021360.13       330235.63
      2021644.13       330514.66        2021979.       331021.94
      2022209.88       331443.03        2022323.       331710.91
      2022481.25       332056.88      2022744.75       332367.44
      2023067.13       332660.56      2023379.13       332896.47
      2023592.25       333139.97      2023703.88       333320.06
      2023894.88       333493.63      2024109.75       333680.25
        2024305.       333875.06      2024348.13       333964.34
      2024345.63       334045.53       2024406.5       334172.34
       2024510.5       334273.81       2024824.5       334413.75
      2025133.88       334536.41      2025431.25       334654.28
        2025695.       334715.16      2025913.13       334722.78
      2026052.75       334717.72        2026144.       334664.44
      2026241.25       334585.09      2026324.13       334446.28
      2026367.63       334255.59      2026425.13       334107.03
      2026564.13       334049.53      2026737.63       334017.63
      2026920.25       333984.66      2027130.75       333928.84
      2027402.13       333908.56        2027633.       333961.81
      2027927.25       334093.72        2028153.       334205.31
        2028366.       334269.97       2028609.5       334344.84
       2028817.5       334471.66       2028992.5       334623.84
        2029160.       334745.63      2029329.25       334825.88
      2029553.13        334877.5      2029740.88       334897.81
        2029888.       334973.91       2030065.5       335159.06
      2030253.25       335298.56      2030326.13       335400.97
      2030397.75        335501.5      2030445.88       335669.31
      2030529.75       335783.06      2030659.88       335922.19
       2030859.5       336082.38      2031016.13       336148.56
      2031224.75       336168.63      2031458.13       336148.31
      2031650.88        336125.5      2031820.88       336168.63
        2031973.       336237.09      2032155.63       336363.94
        2032382.       336517.56      2032564.13       336699.66
      2032728.88       336909.28      2032954.63       337089.38
      2033206.88       337280.25      2033439.13       337518.06
        2033746.       337761.56      2034073.63       337912.13
      2034385.25       338071.03      2034689.63       338279.03
      2035011.75       338563.13       2035300.5       338841.81
      2035362.75       338999.97      2035483.63       339116.09
      2035541.88       339217.56      2035658.88       339356.88
      2035760.13         339456.        2035892.       339572.66
       2036069.5       339686.81      2036269.88       339767.97
      2036488.13       339871.97        2036658.       339963.28
      2036848.25       340138.31      2036992.13       340308.25
        2037112.       340501.03        2037216.       340736.94
      2037279.75       340955.22       2037284.5       341122.94
        2037244.       341343.19        2037251.       341520.69
      2037241.38       341683.09       2037254.5       341845.41
      2037255.75       341956.81        2037216.       342159.94
      2037160.25       342360.34      2037107.13        342517.5
      2037018.25       342665.72      2036908.75       342848.13
        2036795.       343037.59       2036661.5       343154.88
      2036384.13       343288.72        2036237.       343448.53
      2036219.25       343593.09      2036252.13       343747.84
      2036328.25       343882.28        2036450.       344011.63
      2036597.13       344113.09      2036848.25       344217.09
      2036985.25       344305.88       2037038.5       344427.63
      2037058.75       344595.03      2037077.38       344643.56
      2037089.25       344701.56       2037104.5       344830.94
      2037114.63       345005.97      2037066.38       345193.66
        2036949.       345402.44      2036843.63       345699.56
       2036915.5       345977.53      2037092.75       346236.31
      2037304.88       346492.38      2037500.13       346710.75
      2037801.13       346952.53      2038091.13       347169.63
      2038347.38       347304.06       2038598.5       347354.81
      2038854.63       347316.75      2039034.75       347253.34
      2039282.88       347137.25      2039496.38       347154.41
      2039651.88       347285.81      2039757.63       347534.91
      2039829.25       347755.47      2039870.25       347905.66
      2039932.63       348133.56      2039960.63       348298.41
      2039965.63       348486.13      2039886.75       348718.72
        2039747.       348929.63       2039605.5       349143.06
      2039557.25       349259.75        2039556.       349370.47
       2039605.5       349447.47      2039689.25       349508.34
      2039790.88       349495.06      2040003.75       349480.44
      2040168.63       349482.97      2040389.25       349457.63
      2040571.88       349391.66      2040686.63        349252.5
       2040713.5       349228.78        2040823.       349127.84
      2041008.13       349015.84        2041234.       348787.97
      2041416.63         348651.       2041657.5       348539.38
      2041875.75       348445.53        2042096.         348412.
      2042306.88         348412.      2042507.25       348420.16
      2042700.13       348465.81        2042925.       348455.13
      2043140.63       348364.09      2043291.13       348354.22
      2043379.88       348295.88      2043397.63       348156.34
      2043485.75       348057.38      2043653.88       348006.69
      2043785.75       348001.63      2044017.63       348019.03
      2044257.25       347999.88        2044496.       347836.75
      2044734.38       347722.59      2044894.25       347682.03
      2045086.38       347621.28      2045256.88        347646.5
      2045386.25        347646.5      2045528.38       347674.41
      2045632.38        347646.5      2045787.13       347590.72
      2045944.38       347504.47      2046083.13       347276.22
      2046418.63       346905.84        2046685.       346687.69
      2046829.63       346515.22      2046885.38       346411.22
      2046966.63       346297.06      2047118.25       346178.81
      2047314.13       346132.19       2047519.5       346142.34
      2047747.88       346185.47      2048031.88        346257.5
      2048242.25       346310.72       2048544.5       346387.22
      2048881.63       346517.75       2049178.5       346692.78
      2049482.88       346913.44      2049728.88       347022.53
      2050063.75       347146.81        2050401.       347210.22
      2050791.63       347245.75      2051131.63       347316.75
      2051443.63       347397.94      2051725.13       347494.31
       2051991.5       347638.91      2052313.63       347897.63
        2052730.       348196.34      2053196.38       348536.84
      2053427.13       348719.47       2053729.5       348908.38
      2054063.88       349021.31      2054349.88        349092.5
      2054746.13       349148.16        2055043.       349155.75
      2055172.25       349196.34      2055322.63       349327.63
      2055429.25       349450.44      2055801.38       349878.69
       2055915.5       350008.03      2055966.25       350238.88
      2056032.25       350325.13      2056301.13       350477.31
        2056631.         350650.      2057008.75        350733.5
      2057330.63       350731.47      2057970.13       350677.69
      2058480.75       350554.16      2058893.38       350312.44
      2059360.13       350137.41        2059837.       350122.84
        2060345.       350175.56      2060795.38       350295.38
      2061241.13       350463.09        2061627.       350700.13
      2061973.38       350935.13      2062296.88       351256.72
      2062740.25       351671.06      2063111.25       351974.13
      2063544.25       352369.91      2064015.88       352677.13
        2064674.       353006.03      2064855.88       353095.13
      2065019.13       353187.91      2065167.63       353317.81
      2065322.25       353446.47
Rch Text X Y=1992037.5975,304456.3725
Reverse River Text= 0 

Type RM Length L Ch R = 1 ,138154.4,358.43,463.64,517.64
XS GIS Cut Line=2
      1968668.17       290166.79      1969067.87       289778.85
Node Last Edited Time=Sep/18/2000 09:10:52
#Sta/Elev= 40 
       0  660.41       5  660.61      40  659.85      55  659.39      60  659.21
      90  658.45      95  658.48     130   659.6     190  660.21     195  658.98
  197.96  657.39     200   656.3     305  657.15     310  657.68     320  660.58
  324.99  661.39     330  660.95     340  659.56     345  658.84     350  658.28
  361.39  662.03     375  666.52     380  667.51     385  668.12     410  671.32
     415  672.91     430  678.12     440  683.19     445   685.6     455   688.7
     460  689.95     475  694.17     480   695.5     485  696.55  514.99  701.46
     520  702.14     525  702.64     530  703.31     535  703.91  557.01  706.27
#Mann= 3 , 0 , 0 
       0     .06       0     190     .04       0     375      .1       0
Bank Sta=190,375
XS Rating Curve= 0 
XS HTab Starting El and Incr=657.3,2, 0 
Exp/Cntr=0.3,0.1

Type RM Length L Ch R = 1 ,137690.8,305.71,363.84,382.83
XS GIS Cut Line=4
      1968627.02       290584.12      1969009.09       290343.13
      1969273.59       290290.23      1969408.78       290290.23
Node Last Edited Time=Sep/18/2000 09:10:52
#Sta/Elev= 38 
       0  664.28      50  661.73      55  661.54     160  658.65     165  658.65
  180.01  658.79     250  658.98  290.01  659.45     295  659.39     305  659.09
     310  659.11  330.01  659.32     335  659.33     395  659.03     450  659.45
  451.72  659.56  460.01  660.06     465  660.27     510  659.64     520  659.96
  525.01  660.29     530  660.72     535  660.79  539.95  659.73     565  654.38
     570  653.73     650  655.99     655  656.16     660  658.06  672.56  664.59
     705  681.46  721.46  689.01     735  694.24     765  700.36     770  701.23
     785  703.53     790  704.42  856.65   719.1
#Mann= 3 , 0 , 0 
       0     .06       0     535     .04       0  672.56      .1       0
Bank Sta=535,672.56
XS Rating Curve= 0 
XS HTab Starting El and Incr=654.73,2, 0 
Exp/Cntr=0.3,0.1

Type RM Length L Ch R = 1 ,137327.0,732.93,762.02,765.36
XS GIS Cut Line=4
      1968585.88        290854.5      1968868.02       290736.95
       1969085.5       290672.29      1969391.15       290672.29
Node Last Edited Time=Sep/18/2000 09:10:52
#Sta/Elev= 40 
       0  662.72      20   665.5      25  666.48   59.99  664.56      65  664.33
     250  659.04  254.99  658.93     295  659.31  305.65  659.33     385  659.68
     390  659.67     420  659.08     455  659.67     460  659.72     465  659.69
     485  659.78     515  659.58     520  659.38  524.99   658.8     530   658.5
  532.54  658.45     550  658.12     555  658.23     580   659.3  584.22  658.51
     585  658.36     590  656.91     600  653.66     605   653.4     705  656.01
     710  659.27  717.24  663.79     745  681.14     750  684.43     770  697.71
     795   711.5     800  714.13     815  716.88     820  717.76  838.19  719.88
#Mann= 3 , 0 , 0 
       0     .06       0     580     .04       0  717.24      .1       0
Bank Sta=580,717.24
XS Rating Curve= 0 
XS HTab Starting El and Incr=654.4,2, 0 
Exp/Cntr=0.3,0.1

Type RM Length L Ch R = 1 ,136564.9,349.61,362.64,370.75
XS GIS Cut Line=3
      1968521.22       291524.58      1968903.29       291424.66
      1969291.23       291430.54
Node Last Edited Time=Sep/18/2000 09:10:52
#Sta/Elev= 35 
       0  663.72      40  669.65      45  670.46   50.01  671.71      55  671.42
      60  671.18     210  666.85  215.01  666.57     265  663.38     270  662.78
     340  659.16     390  658.75  394.92  658.68     420  658.46     465  658.84
     500  659.32  530.01  659.56   534.8  657.07  535.01  656.96     540  653.42
     675  655.83     680  657.03     685  659.22     700  667.37  700.46  667.61
     715  675.36     720  677.43     735  683.26     745   687.3     755  688.84
     760   689.5     765  690.11     775  691.22     780   691.6   782.9  691.71
#Mann= 3 , 0 , 0 
       0     .06       0  530.01     .04       0  700.46      .1       0
Bank Sta=530.01,700.46
XS Rating Curve= 0 
XS HTab Starting El and Incr=654.42,2, 0 
Exp/Cntr=0.3,0.1

Type RM Length L Ch R = 1 ,136202.3,590.5,610.86,647.38
XS GIS Cut Line=3
      1968468.32        291918.4      1968715.19       291753.82
      1969255.96       291800.84
Node Last Edited Time=Sep/18/2000 09:10:52
#Sta/Elev= 66 
       0  657.88      10  657.64      20  657.23      30  658.54      35     659
      50  659.66      90  657.38      95  657.17     125  665.26     130  666.37
     140  668.18     145  669.24     150  671.49     155  671.14     165  667.24
     200  656.24     205  655.79     240  657.03     245  657.12     255  657.01
     280  656.52  285.01   656.5   296.7  656.66  330.01  657.03  335.01  656.85
     340  656.28     350  655.05     355  654.61     360  655.61     365  656.53
     390  657.64     395  657.76     410  657.39  415.01  657.42     430  658.08
     435   658.1     445  657.95     480  657.92     485   657.8     505  656.92
     510  656.77     515  656.69     525   656.7     530  656.78     535  656.89
  539.89  657.03  540.01  657.03     545  656.56     550   654.3     555  653.47
     670  654.48     690  654.75     695  655.55     700  657.67  705.01  659.87
     710  661.91  714.84  663.86     765  684.05     770  685.79     775  686.34
     780  686.92     810  690.98     825  692.86  830.01  692.34     835  691.78
  839.51  691.35
#Mann= 3 , 0 , 0 
       0     .06       0  539.89     .04       0  714.84      .1       0
Bank Sta=539.89,714.84
XS Rating Curve= 0 
XS HTab Starting El and Incr=654.47,2, 0 
Exp/Cntr=0.3,0.1

Type RM Length L Ch R = 1 ,135591.4,601.41,522.71,423.08
XS GIS Cut Line=4
      1968485.96       292294.59      1968820.99       292335.73
      1969114.89        292423.9      1969355.88       292429.78
Node Last Edited Time=Sep/18/2000 09:10:52
#Sta/Elev= 84 
       0   658.4    9.99  658.49   14.99  658.23      20  657.69      25  657.38
     155  657.37     170  657.21  174.99  657.62  179.99  658.28     185  659.13
     190  659.73  194.99  659.81  199.99  659.36     205  658.86     210  658.18
     225  655.88     245  656.36  249.99  656.55     265  657.44  268.29  657.66
  269.99  657.78     285  656.93  289.99  655.71     295  654.01     300  652.21
  304.99  651.77  337.55  651.82  349.99  651.83  354.99  652.61  359.99  654.39
  364.99  654.36     375  653.95     380  653.77     385  653.51     395  652.54
  399.99  652.34  419.99  652.34     425  652.59     435  653.68     440  653.81
     445  652.07     495  653.51     500  653.75     505  654.78     510  654.69
  514.99  653.79  519.99   652.7  524.99  652.74  529.99  652.84     560  666.11
     565   671.9  567.13  672.19     570  672.59  574.99  672.85     610  668.46
     615  667.32     625  664.96  629.99  663.53  634.99  662.03  639.99  660.27
  644.39  658.87     650  656.73  654.99   656.1     685  655.76  689.99  655.43
  694.99  653.61  699.99  652.34  754.99  652.34  759.99  653.86  764.99  656.19
  769.99  656.47     775  656.71  789.99  657.55  794.99  657.33     820  654.38
  824.99  653.91  829.99  654.07  834.99  654.32     840  655.33     845  655.83
     850  656.37     855  657.02  859.99  658.72  885.45  671.04
#Mann= 3 , 0 , 0 
       0     .06       0  268.29     .04       0  567.13      .1       0
Levee=0,,,-1,574.99,,0,0
Bank Sta=268.29,567.13
XS Rating Curve= 0 
XS HTab Starting El and Incr=652.77,2, 0 
Exp/Cntr=0.3,0.1

Type RM Length L Ch R = 1 ,135068.7,630.3,581.51,462.03
XS GIS Cut Line=3
      1968177.37       293091.04      1969106.07       292785.39
      1969394.09       292814.78
Node Last Edited Time=Sep/18/2000 09:10:52
#Sta/Elev= 73 
       0  664.93   14.99  665.03   94.99  663.25  119.99  662.84     135  662.37
  179.99  661.48     230  660.95  259.99  660.18  274.99   659.7  279.99   659.6
     320   659.3     325  659.23  364.99  657.77     370   657.8     405  658.19
     410  658.11     450  656.38  454.99   656.2     475  656.19     500  654.86
  504.99  654.63  509.99  654.55     655  654.37  674.99  654.47  684.99  654.36
  689.99  654.33     730  654.93     735  655.44     740  656.09  743.22  655.07
  749.99  652.93  754.99  652.36     800  652.98  864.99  653.24     870  653.32
     875  653.78     890  655.28  894.78  655.57     895  655.58  929.99  656.58
     950  656.18     960  656.08   977.7  655.62    1015  654.51 1019.99  654.43
    1025  654.38 1029.99  654.52    1035  653.93    1040  652.47 1044.99  652.01
    1065  652.01    1070  652.75    1075   654.4 1079.99  655.52    1100  655.57
 1104.99  655.61 1149.99  656.41    1160  656.43 1174.99  656.53    1180  655.78
    1185  654.63    1190  653.63    1205  653.63 1209.99  654.37    1215  658.01
    1220   662.8 1224.99  669.49    1230  671.45 1234.99   673.1    1240  673.71
 1259.99  671.09    1265  670.52 1267.22  670.33
#Mann= 3 , 0 , 0 
       0     .06       0     740     .04       0  929.99      .1       0
Bank Sta=740,929.99
XS Rating Curve= 0 
XS HTab Starting El and Incr=653.36,2, 0 
Exp/Cntr=0.3,0.1

Type RM Length L Ch R = 1 ,134487.2,605.29,606.25,590.87
XS GIS Cut Line=3
       1968594.7       293702.34      1969164.85       293402.57
      1969564.55       293055.77
Node Last Edited Time=Sep/18/2000 09:10:52
#Sta/Elev= 66 
       0  669.08       5  669.03      10  667.24      20  663.53   24.99  661.37
      30  661.34      50  661.64   69.99   661.8      75   661.8     125  660.22
     170   658.5  244.99  657.51  264.99  656.86     270  656.82  319.99  656.93
  374.99  655.44  419.99  655.68     425  655.76     430  655.71     460   655.1
  464.99  654.96  469.99  654.86     480  654.73     520  655.04     600  655.07
  634.99  655.41     640  655.43  644.15  655.39     675     655  679.99  654.99
     685  655.03  711.74   655.4     730  655.66     735  654.77     745   652.3
     750   651.2  869.99  651.06     880  651.28  889.99  651.13     895  651.12
  899.99  651.36  904.99  652.01     910   652.7  914.99  653.51  923.53  654.18
     925   654.3  929.99  654.65    1015  655.69 1019.99   655.8 1034.99  656.93
    1040  655.91 1049.99  653.69    1055  653.37    1070   654.4    1075  655.04
 1094.99  657.01    1120   657.1 1124.99  657.17    1130  657.35    1135  657.59
 1139.99  657.97 1154.99  667.81    1160   670.7 1164.99  673.15 1169.99  675.43
 1173.33  675.19
#Mann= 3 , 0 , 0 
       0     .06       0     730     .04       0  929.99      .1       0