Proj Title=Bald Eagle Cr. for the WCDS Project
Current Plan=p01
Default Exp/Contr=0.3,0.1
English Units
Geom File=g01
Flow File=f02
Flow File=f01
Unsteady File=u02
Plan File=p01
Plan File=p02
Y Axis Title=Elevation
X Axis Title(PF)=Main Channel Distance
X Axis Title(XS)=Station
DSS Caption Additional Text=Jensen
BEGIN DESCRIPTION:
Bald Eagle Creek.  This model does not represent actual water surface elevations for Bald Eagle Creek.  This data set is intended to be used only as an example Unsteady Flow data set.
END DESCRIPTION:
DSS Start Date=02/18/99
DSS Start Time=0000
DSS End Date=02/21/99
DSS End Time=2400
DSS File=dss
DSS Export Filename=
DSS Export Rating Curves= 0 
DSS Export Rating Curve Sorted= 0 
DSS Export Volume Flow Curves= 0 
DXF Filename=
DXF OffsetX= 0 
DXF OffsetY= 0 
DXF ScaleX= 1 
DXF ScaleY= 10 
GIS Export Profiles= 0 
