Flow Title=Unsteady flow data
Program Version=3.10
Use Restart= 0 
Initial Flow Loc=Beaver Creek    ,Kentwood        ,5.99    ,3000
Initial Storage Elev=STo #1          ,210
Boundary Location=Beaver Creek    ,Kentwood        ,5.99    ,        ,                ,                
Interval=1HOUR
Flow Hydrograph= 150 
 1052.04  1207.6 1464.96 1821.32 2272.76 2814.34 3440.12 4143.26 4916.04    5750
    6636 7564.34 8524.84 9506.98   1050011493.0212475.1613435.66   14364   15250
16083.9616856.7417559.8818185.6618727.2419178.6819535.04 19792.419947.96   20000
19947.96 19792.419535.0419178.6818727.2418185.6617559.8816856.7416083.96   15250
   1436413435.6612475.1611493.0210981.2710494.4810031.43 9590.96 9171.97 8773.42
 8394.31 8033.68 7690.65 7364.34 7053.95 6758.69 6477.84 6210.68 5956.55 5714.82
 5484.87 5266.14 5058.08 4860.17  4671.9 4492.82 4322.48 4160.44  4006.3 3859.68
 3720.21 3587.55 3461.35 3341.31 3227.12  3118.5 3015.18  2916.9 2823.41 2734.49
 2649.89 2569.43 2492.89 2420.08 2350.82 2284.94 2222.27 2162.66 2105.96 2052.02
 2000.71 1951.91 1905.48 1861.32 1819.31 1779.35 1741.35 1705.19  1670.8 1638.08
 1606.96 1577.36  1549.2 1522.42 1496.94  1472.7 1449.65 1427.72 1406.86 1387.02
 1368.14 1350.19 1333.11 1316.86 1301.41 1286.71 1272.73 1259.43 1246.77 1234.74
 1223.29  1212.4 1202.04 1192.19 1182.81  1173.9 1165.42 1157.35 1149.68 1142.38
 1135.43 1128.83 1122.54 1116.57 1110.88 1105.47 1100.33 1095.44 1090.78 1086.36
 1082.14 1078.14 1074.33  1070.7 1067.25 1063.97 1060.85 1057.89 1055.06 1052.38
DSS Path=
Use DSS=False
CWMS InputPosition= 0 
Use Fixed Start Time=False
Fixed Start Date/Time=,
Is Critical Boundary=False
Critical Boundary Flow=
Boundary Location=Beaver Creek    ,Kentwood        ,5.0     ,        ,                ,                
Interval=1HOUR
Rating Curve= 20 
  204.14     200  206.09     500  207.26    1000  208.47    2000   209.3    3000
  209.83    4000  210.25    5000  210.68    6000  210.99    7000  211.27    8000
  211.53    9000  211.78   10000  212.02   11000  212.25   12000  212.47   13000
  212.68   14000     213   16000     214   21000     215   26000     216   30000
DSS Path=
Use DSS=False
CWMS InputPosition= 0 
Use Fixed Start Time=False
Fixed Start Date/Time=,
Is Critical Boundary=False
Critical Boundary Flow=
