Flow Title=Flow data with two profiles
Version=Version 3.1 Beta  Mar 2002
Number of Profiles= 2 
Profile Names=PF 1,PF 2
River Rch & RM=Mixed Reach,Mixed Reach     ,0.5682  
     500    1000
Boundary for River Rch & Prof#=Mixed Reach,Mixed Reach     , 1 
Up Type= 3 
Up Slope=0.01
Dn Type= 3 
Dn Slope=0.000586
Boundary for River Rch & Prof#=Mixed Reach,Mixed Reach     , 2 
Up Type= 3 
Up Slope=0.01
Dn Type= 3 
Dn Slope=0.000586
Observed WS=Mixed Reach     ,Mixed Reach     ,0.5682  ,,71.86,
Observed WS=Mixed Reach     ,Mixed Reach     ,0.5493  ,,70.87,
Observed WS=Mixed Reach     ,Mixed Reach     ,0.5303  ,,69.87,
Observed WS=Mixed Reach     ,Mixed Reach     ,0.5114  ,,68.87,
Observed WS=Mixed Reach     ,Mixed Reach     ,0.4925  ,,67.87,
Observed WS=Mixed Reach     ,Mixed Reach     ,0.4735  ,,69.56,
Observed WS=Mixed Reach     ,Mixed Reach     ,0.4546  ,,69.49,
Observed WS=Mixed Reach     ,Mixed Reach     ,0.4167  ,,69.33,
Observed WS=Mixed Reach     ,Mixed Reach     ,0.3788  ,,69.16,
Observed WS=Mixed Reach     ,Mixed Reach     ,0.3409  ,,68.97,
Observed WS=Mixed Reach     ,Mixed Reach     ,0.3030  ,,68.76,
Observed WS=Mixed Reach     ,Mixed Reach     ,0.2651  ,,68.51,
Observed WS=Mixed Reach     ,Mixed Reach     ,0.2273  ,,68.2,
Observed WS=Mixed Reach     ,Mixed Reach     ,0.1834  ,,67.12,
Observed WS=Mixed Reach     ,Mixed Reach     ,0.1515  ,,66.58,
Observed WS=Mixed Reach     ,Mixed Reach     ,0.1136  ,,66.29,
Observed WS=Mixed Reach     ,Mixed Reach     ,0.07576 ,,66.16,
Observed WS=Mixed Reach     ,Mixed Reach     ,0.03788 ,,66.09,
Observed WS=Mixed Reach     ,Mixed Reach     ,0.00000 ,,66,
DSS Import StartDate=
DSS Import StartTime=
DSS Import EndDate=
DSS Import EndTime=
DSS Import GetInterval= 0 
DSS Import Interval=
DSS Import GetPeak= 0 
DSS Import FillOption= 0 
